geometry optimzed in LAMMPS
_audit_creation_date              2020-11-30 
_audit_creation_method            'lammps2cif' 
_symmetry_space_group_name_H-M    'P1' 
_symmetry_Int_Tables_number       1 
_symmetry_cell_setting            triclinic 
loop_ 
_symmetry_equiv_pos_as_xyz 
  x,y,z 
_cell_length_a                    77.89150074 
_cell_length_b                    78.77208490182655 
_cell_length_c                    36.09905293777638 
_cell_angle_alpha                 90.21734349975526 
_cell_angle_beta                  89.95118285210219 
_cell_angle_gamma                 119.81677997605047 
loop_ 
_atom_site_label 
_atom_site_type_symbol 
_atom_site_fract_x 
_atom_site_fract_y 
_atom_site_fract_z 
_atom_site_charge 
O1          O  0.07820582  0.44383250  0.18286002    -0.56800
C2          C  0.03936694  0.44709033  0.24642561     0.75800
O3          O  0.10780257  0.47052263  0.27531738    -0.58000
C4          C  0.09522866  0.45392477  0.16885277     0.75800
C5          C  0.09038222  0.50763927  0.22745072     0.78200
Cd6        Cd  0.08155777  0.46725268  0.23224935     1.37500
O7          O  0.04634748  0.44832293  0.21415472    -0.56800
O8          O  0.08083928  0.49502078  0.20267817    -0.55600
C9          C  0.09639740  0.45567706  0.29442761     0.78100
O10         O  0.09639698  0.50173183  0.25433216    -0.58000
O11         O  0.05191846  0.45577432  0.27186781    -0.56500
O12         O  0.10606087  0.47040303  0.18392268    -0.56400
O13         O  0.07857203  0.44627666  0.28409557    -0.55600
O14         O  0.91439135  0.35217585  0.32336571    -0.56800
C15         C  0.95459341  0.40065018  0.27124423     0.75800
O16         O  0.88516314  0.35083120  0.24451610    -0.58000
C17         C  0.90059838  0.34985413  0.34503121     0.75800
C18         C  0.90154204  0.40613207  0.29319936     0.78200
Cd19       Cd  0.91242413  0.37649023  0.28320297     1.37500
O20         O  0.94773789  0.39172965  0.30156495    -0.56800
O21         O  0.91194202  0.40308777  0.31615557    -0.55600
C22         C  0.89683583  0.35123813  0.21964331     0.78100
O23         O  0.89538417  0.39484574  0.26533106    -0.58000
O24         O  0.94194270  0.39852242  0.24708142    -0.56500
O25         O  0.89245056  0.35992519  0.33811378    -0.56400
O26         O  0.91500102  0.36301591  0.22485253    -0.55600
O27         O  0.03867338  0.25265462  0.32894456    -0.56800
C28         C  0.07354165  0.28942162  0.40704772     0.75800
O29         O  0.04609039  0.22920762  0.43901600    -0.58000
C30         C  0.03217441  0.23564068  0.31570445     0.75800
C31         C  0.09127191  0.24554595  0.36774479     0.78200
Cd32       Cd  0.05673331  0.24921697  0.38176551     1.37500
O33         O  0.06863414  0.27546836  0.42945238    -0.56800
O34         O  0.08865545  0.25864067  0.35316665    -0.55600
C35         C  0.02936440  0.22822273  0.44036611     0.78100
O36         O  0.07746723  0.23353804  0.38843737    -0.58000
O37         O  0.07035943  0.28472554  0.37315525    -0.56500
O38         O  0.03720940  0.22482224  0.33289630    -0.56400
O39         O  0.02546589  0.23646257  0.41427265    -0.55600
O40         O  0.16886282  0.42909832  0.47119869    -0.56800
C41         C  0.12355895  0.42907605  0.41879685     0.75800
O42         O  0.11234486  0.37539465  0.48693613    -0.58000
C43         C  0.17240241  0.41847890  0.49250016     0.75800
C44         C  0.11980136  0.42393327  0.04388732     0.78200
Cd45       Cd  0.13271363  0.41106946  0.47907417     1.37500
O46         O  0.11086152  0.41752780  0.44173944    -0.56800
O47         O  0.13527951  0.43519547  0.02590015    -0.55600
C48         C  0.11309345  0.37087759  0.45349530     0.78100
O49         O  0.11024875  0.40648538  0.03216329    -0.58000
O50         O  0.14122517  0.43302135  0.42424409    -0.56500
O51         O  0.15756756  0.40492808  0.00867602    -0.56400
O52         O  0.12298393  0.38502618  0.43186904    -0.55600
O53         O  0.97306642  0.22031223  0.17291934    -0.56800
C54         C  0.93229518  0.21680984  0.10818860     0.75800
O55         O  0.95655597  0.19137180  0.06154350    -0.58000
C56         C  0.97861505  0.20968517  0.18939539     0.75800
C57         C  0.91811433  0.15606710  0.14242610     0.78200
Cd58       Cd  0.95106685  0.19476069  0.12812029     1.37500
O59         O  0.93461584  0.21408542  0.14193901    -0.56800
O60         O  0.91899608  0.17137086  0.15544103    -0.55600
C61         C  0.97522703  0.20007934  0.06368552     0.78100
O62         O  0.93313618  0.15854333  0.12438498    -0.58000
O63         O  0.93955771  0.21022316  0.08472993    -0.56500
O64         O  0.97114173  0.19224118  0.17771293    -0.56400
O65         O  0.98254724  0.20522359  0.09577928    -0.55600
O66         O  0.88525264  0.28628168  0.47583966    -0.56800
C67         C  0.88907836  0.25427757  0.05631960     0.75800
O68         O  0.85844584  0.28769211  0.08473626    -0.58000
C69         C  0.87615056  0.29520138  0.46692128     0.75800
C70         C  0.82679379  0.24010005  0.02869161     0.78200
Cd71       Cd  0.86669729  0.27260129  0.03357617     1.37500
O72         O  0.88757033  0.25753632  0.02255589    -0.56800
O73         O  0.84016895  0.24266971  0.00580470    -0.55600
C74         C  0.87588884  0.30153485  0.09028413     0.78100
O75         O  0.83171270  0.25305078  0.05348995    -0.58000
O76         O  0.88015482  0.25940886  0.07905412    -0.56500
O77         O  0.86255665  0.29319087  0.98811237    -0.56400
O78         O  0.88906605  0.30237375  0.06857442    -0.55600
O79         O  0.88766908  0.61222864  0.04607463    -0.56800
C80         C  0.87524588  0.56167067  0.49581944     0.75800
O81         O  0.85736612  0.55709481  0.11470072    -0.58000
C82         C  0.88540546  0.61862856  0.07685650     0.75800
C83         C  0.82591680  0.57125785  0.04330519     0.78200
Cd84       Cd  0.86484910  0.57738548  0.05855623     1.37500
O85         O  0.88615283  0.57894580  0.50756405    -0.56800
O86         O  0.84118929  0.58397871  0.02662509    -0.55600
C87         C  0.87490288  0.56046015  0.11943585     0.78100
O88         O  0.82854188  0.56075787  0.06655878    -0.58000
O89         O  0.85898063  0.55158609  0.01263481    -0.56500
O90         O  0.87366933  0.60584887  0.09939669    -0.56400
O91         O  0.88747885  0.57147901  0.09586527    -0.55600
O92         O  0.95587542  0.76552594  0.17420764    -0.56800
C93         C  0.92511119  0.70222964  0.10610450     0.75800
O94         O  0.92057302  0.76010294  0.10897299    -0.58000
C95         C  0.96572612  0.75750832  0.18422416     0.75800
C96         C  0.96386448  0.76340425  0.05603183     0.78200
Cd97       Cd  0.94002288  0.74352385  0.11986347     1.37500
O98         O  0.93537271  0.71502546  0.08230366    -0.56800
O99         O  0.97082913  0.76712778  0.08859777    -0.55600
C100        C  0.90541080  0.74793080  0.12670049     0.78100
O101        O  0.94559304  0.75113671  0.05321285    -0.58000
O102        O  0.92249397  0.70866357  0.13649906    -0.56500
O103        O  0.96336116  0.74309969  0.16478669    -0.56400
O104        O  0.90663907  0.73426643  0.14234015    -0.55600
O105        O  0.10311287  0.73063600  0.49728495    -0.56800
C106        C  0.11618299  0.69286850  0.05364712     0.75800
O107        O  0.13502227  0.70231683  0.43462441    -0.58000
C108        C  0.10380685  0.73573649  0.46380906     0.75800
C109        C  0.16415339  0.75111108  0.49412001     0.78200
Cd110      Cd  0.12579730  0.71683289  0.48747960     1.37500
O111        O  0.10447940  0.69776590  0.03931114    -0.56800
O112        O  0.14917638  0.74936145  0.01103463    -0.55600
C113        C  0.11735074  0.68957981  0.42698516     0.78100
O114        O  0.16170923  0.73633033  0.47584686    -0.58000
O115        O  0.13284268  0.69959316  0.03804174    -0.56500
O116        O  0.11445939  0.73206204  0.44252526    -0.56400
O117        O  0.10421117  0.68929680  0.44800760    -0.55600
O118        O  0.02784574  0.77361658  0.32191645    -0.56800
C119        C  0.06360257  0.77472871  0.40270513     0.75800
O120        O  0.06446655  0.83242524  0.37433496    -0.58000
C121        C  0.02029536  0.78335508  0.30903417     0.75800
C122        C  0.01845483  0.79094775  0.43337178     0.78200
Cd123      Cd  0.04564189  0.79637393  0.37404564     1.37500
O124        O  0.05926356  0.78510270  0.42317959    -0.56800
O125        O  0.01462178  0.77873707  0.40741328    -0.55600
C126        C  0.07970908  0.83406253  0.35842621     0.78100
O127        O  0.03512427  0.80646091  0.43182073    -0.58000
O128        O  0.05911443  0.77390815  0.36878116    -0.56500
O129        O  0.02497736  0.79927597  0.32557857    -0.56400
O130        O  0.07872818  0.81825460  0.34818492    -0.55600
O131        O  0.91890434  0.54233541  0.35970227    -0.56800
C132        C  0.95499965  0.53878480  0.29612946     0.75800
O133        O  0.89803621  0.48630778  0.28325022    -0.58000
C134        C  0.90153205  0.53320808  0.37254673     0.75800
C135        C  0.89745928  0.53210748  0.24788683     0.78200
Cd136      Cd  0.91282827  0.51953364  0.30834554     1.37500
O137        O  0.94242325  0.52801842  0.27209146    -0.56800
O138        O  0.88571473  0.51908248  0.27002209    -0.55600
C139        C  0.90184809  0.47871550  0.31050381     0.78100
O140        O  0.91566645  0.53927876  0.25471467    -0.58000
O141        O  0.94807915  0.54002066  0.32714803    -0.56500
O142        O  0.88954090  0.51764703  0.35571905    -0.56400
O143        O  0.91012101  0.48990102  0.33788585    -0.55600
O144        O  0.10342962  0.63064070  0.28611842    -0.56800
C145        C  0.08996506  0.58074344  0.22621027     0.75800
O146        O  0.05132091  0.59102035  0.27961340    -0.58000
C147        C  0.09264934  0.63669756  0.30075693     0.75800
C148        C  0.09047120  0.63798258  0.17638105     0.78200
Cd149      Cd  0.07885967  0.61055091  0.23753427     1.37500
O150        O  0.09603505  0.59222857  0.25380205    -0.56800
O151        O  0.10272336  0.63486922  0.19378870    -0.55600
C152        C  0.03774010  0.58490411  0.25552628     0.78100
O153        O  0.07269103  0.62822028  0.18704837    -0.58000
O154        O  0.07979592  0.58385964  0.20281578    -0.56500
O155        O  0.07601474  0.63098443  0.28564902    -0.56400
O156        O  0.04316338  0.59062921  0.22263117    -0.55600
O157        O  0.63355404  0.54888489  0.33935150    -0.56800
C158        C  0.59567389  0.55151579  0.27654391     0.75800
O159        O  0.64250767  0.53369469  0.26395773    -0.58000
C160        C  0.63668857  0.53690287  0.35722130     0.75800
C161        C  0.57667335  0.48627314  0.29953966     0.78200
Cd162      Cd  0.61087778  0.52525422  0.29257000     1.37500
O163        O  0.59207869  0.54220754  0.30665293    -0.56800
O164        O  0.57919063  0.50068648  0.31906859    -0.55600
C165        C  0.63603031  0.52852168  0.23131997     0.78100
O166        O  0.59049708  0.48958872  0.27718536    -0.58000
O167        O  0.60678212  0.54911186  0.25420079    -0.56500
O168        O  0.62751768  0.51938638  0.34565499    -0.56400
O169        O  0.61752075  0.52100558  0.22713372    -0.55600
O170        O  0.55511627  0.63156252  0.15894752    -0.56800
C171        C  0.55509356  0.59391006  0.23734931     0.75800
O172        O  0.52552519  0.63017386  0.26162096    -0.58000
C173        C  0.54458373  0.63878060  0.14860694     0.75800
C174        C  0.49509369  0.57986527  0.20191350     0.78200
Cd175      Cd  0.53407992  0.61343459  0.21303155     1.37500
O176        O  0.55784528  0.60179463  0.20571064    -0.56800
O177        O  0.50979430  0.58220240  0.18299639    -0.55600
C178        C  0.54307944  0.64072107  0.27318979     0.78100
O179        O  0.49840616  0.59334375  0.22487033    -0.58000
O180        O  0.54242604  0.59495814  0.25771443    -0.56500
O181        O  0.52909975  0.63379150  0.16738960    -0.56400
O182        O  0.55627875  0.63888864  0.25626611    -0.55600
O183        O  0.73651330  0.55735227  0.05015276    -0.56800
C184        C  0.69101341  0.55367083  0.10923160     0.75800
O185        O  0.72326173  0.60740790  0.03664214    -0.58000
C186        C  0.75155326  0.57056017  0.03365160     0.75800
C187        C  0.69082026  0.55995020  0.48285294     0.78200
Cd188      Cd  0.71665113  0.57371282  0.04724728     1.37500
O189        O  0.70961468  0.56291875  0.11277443    -0.56800
O190        O  0.69676937  0.54932411  0.99792530    -0.55600
C191        C  0.73098043  0.61410704  0.06801073     0.78100
O192        O  0.69731805  0.57678553  0.49702970    -0.58000
O193        O  0.68454413  0.55300458  0.07686999    -0.56500
O194        O  0.74993529  0.58467367  0.02125338    -0.74400
O195        O  0.73177623  0.60203152  0.08987256    -0.55600
O196        O  0.76468843  0.73880232  0.15020416    -0.56800
C197        C  0.76573029  0.69701597  0.09884248     0.75800
O198        O  0.78751693  0.76525854  0.07721557    -0.58000
C199        C  0.77675910  0.75319607  0.16973668     0.75800
C200        C  0.83038908  0.74625015  0.11685762     0.78200
Cd201      Cd  0.79018358  0.73900134  0.10871237     1.37500
O202        O  0.76528131  0.70888366  0.07593505    -0.56800
O203        O  0.81658502  0.73583373  0.13900924    -0.55600
C204        C  0.78659364  0.75859535  0.04488259     0.78100
O205        O  0.82580628  0.75390772  0.09073630    -0.58000
O206        O  0.77667797  0.70461904  0.12687886    -0.56500
O207        O  0.79481519  0.76063798  0.16111137    -0.56400
O208        O  0.78830677  0.74346729  0.04238370    -0.55600
O209        O  0.76529026  0.79799565  0.31462964    -0.56800
C210        C  0.69943672  0.77247105  0.38647887     0.75800
O211        O  0.75091195  0.77248943  0.39270245    -0.58000
C212        C  0.75357812  0.78310668  0.29580894     0.75800
C213        C  0.74744374  0.83351812  0.35687898     0.78200
Cd214      Cd  0.74044427  0.79379966  0.36227756     1.37500
O215        O  0.71368528  0.77829763  0.40902420    -0.56800
O216        O  0.73464926  0.81984955  0.33696536    -0.55600
C217        C  0.76067982  0.78447801  0.41826359     0.78100
O218        O  0.75758796  0.82895996  0.37764475    -0.58000
O219        O  0.70414446  0.77596867  0.35267046    -0.56500
O220        O  0.73589153  0.77381444  0.30717785    -0.56400
O221        O  0.76135770  0.80087682  0.41735631    -0.55600
O222        O  0.61277506  0.73053803  0.46718082    -0.56800
C223        C  0.56548479  0.69386440  0.02696287     0.75800
O224        O  0.56038062  0.73839223  0.45587661    -0.58000
C225        C  0.61754276  0.73734027  0.43469466     0.75800
C226        C  0.56086102  0.69148768  0.40073948     0.78200
Cd227      Cd  0.57710318  0.71850927  0.46143317     1.37500
O228        O  0.58297075  0.70254000  0.01457801    -0.56800
O229        O  0.57344272  0.69198524  0.42339568    -0.55600
C230        C  0.57336193  0.75264532  0.47461289     0.78100
O231        O  0.55408012  0.70285727  0.40747834    -0.58000
O232        O  0.55294701  0.69706555  0.50992703    -0.56500
O233        O  0.60355654  0.73583269  0.41455396    -0.56400
O234        O  0.58731210  0.75028319  0.98821332    -0.55600
O235        O  0.47034704  0.36563326  0.24671301    -0.56800
C236        C  0.50130452  0.41391932  0.30532103     0.75800
O237        O  0.44731529  0.39368729  0.25494989    -0.58000
C238        C  0.45281863  0.35198190  0.24080391     0.75800
C239        C  0.45222474  0.35448602  0.36199257     0.78200
Cd240      Cd  0.46196673  0.38021978  0.29872678     1.37500
O241        O  0.49685941  0.40101556  0.28046811    -0.56800
O242        O  0.46803246  0.36001033  0.34391044    -0.55600
C243        C  0.44016640  0.39986055  0.27952177     0.78100
O244        O  0.44153785  0.36151821  0.35159742    -0.58000
O245        O  0.48773994  0.41077027  0.32820057    -0.56500
O246        O  0.43957813  0.35157073  0.26172458    -0.56400
O247        O  0.44258885  0.39638180  0.31274001    -0.55600
O248        O  0.39553578  0.44495015  0.21379378    -0.56800
C249        C  0.35973299  0.45724482  0.16059967     0.75800
O250        O  0.37627170  0.47794091  0.28286096    -0.58000
C251        C  0.40325672  0.44634920  0.24528141     0.75800
C252        C  0.41941286  0.50841335  0.20746723     0.78200
Cd253      Cd  0.38609413  0.47001223  0.22338697     1.37500
O254        O  0.36152125  0.47101814  0.18137110    -0.56800
O255        O  0.41819121  0.49270960  0.19579672    -0.55600
C256        C  0.35937797  0.46268028  0.28363457     0.78100
O257        O  0.40455687  0.50654626  0.22519765    -0.58000
O258        O  0.37081217  0.45021574  0.16800079    -0.56500
O259        O  0.40291051  0.45872905  0.26725032    -0.56400
O260        O  0.35502135  0.45109589  0.25647025    -0.55600
O261        O  0.22598936  0.29363693  0.35787268    -0.56800
C262        C  0.21874346  0.24348068  0.29956076     0.75800
O263        O  0.22629547  0.24601767  0.39958253    -0.58000
C264        C  0.22972736  0.29771904  0.39193076     0.75800
C265        C  0.16789659  0.25113442  0.35543481     0.78200
Cd266      Cd  0.20762576  0.25771725  0.36485990     1.37500
O267        O  0.22919119  0.26102741  0.31037883    -0.56800
O268        O  0.18241293  0.26502484  0.33903671    -0.55600
C269        C  0.21303171  0.23621436  0.42329142     0.78100
O270        O  0.17183389  0.24016432  0.37477418    -0.58000
O271        O  0.20329672  0.23310265  0.31825708    -0.56500
O272        O  0.22376735  0.28325481  0.41341141    -0.56400
O273        O  0.19692833  0.23637491  0.42011359    -0.55600
O274        O  0.30394342  0.41462001  0.01453879    -0.56800
C275        C  0.26575671  0.37819617  0.44347509     0.75800
O276        O  0.26306057  0.43579963  0.46764385    -0.58000
C277        C  0.30669218  0.42897427  0.03465027     0.75800
C278        C  0.30825026  0.43993564  0.41080666     0.78200
Cd279      Cd  0.28199087  0.41809424  0.47002355     1.37500
O280        O  0.26554758  0.39146575  0.42433293    -0.56800
O281        O  0.28964776  0.43104804  0.40748593    -0.55600
C282        C  0.24881390  0.42355437  0.48722877     0.78100
O283        O  0.31493471  0.44011302  0.44276050    -0.58000
O284        O  0.27333441  0.38329277  0.47544906    -0.56500
O285        O  0.29763701  0.43790226  0.02514651    -0.56400
O286        O  0.25050793  0.40956631  0.99993435    -0.55600
O287        O  0.44482634  0.29980122  0.09115969    -0.56800
C288        C  0.42453158  0.24304996  0.03922216     0.75800
O289        O  0.38284984  0.26658152  0.04300324    -0.58000
C290        C  0.43298988  0.30046603  0.11438811     0.75800
C291        C  0.42759614  0.30061931  0.48623559     0.78200
Cd292      Cd  0.41729527  0.27519660  0.05074098     1.37500
O293        O  0.43381021  0.25586267  0.06386074    -0.56800
O294        O  0.43954504  0.29582317  0.00072865    -0.55600
C295        C  0.37590247  0.25443177  0.06940368     0.78100
O296        O  0.41078877  0.29339932  0.50137232    -0.58000
O297        O  0.41288878  0.24585599  0.01911790    -0.56500
O298        O  0.41483978  0.28976203  0.10744766    -0.56400
O299        O  0.38815900  0.25123533  0.08663135    -0.55600
O300        O  0.28346354  0.20064650  0.11931047    -0.56800
C301        C  0.23840011  0.20894065  0.17526454     0.75800
O302        O  0.22529144  0.19964949  0.07545119    -0.58000
C303        C  0.29179383  0.21633576  0.10080654     0.75800
C304        C  0.23846524  0.15326977  0.11314989     0.78200
Cd305      Cd  0.24928371  0.19420368  0.11038498     1.37500
O306        O  0.25486379  0.21845229  0.15900269    -0.56800
O307        O  0.24793959  0.16538159  0.13869191    -0.55600
C308        C  0.23379890  0.20211192  0.04438950     0.78100
O309        O  0.23294376  0.15983119  0.08655409    -0.58000
O310        O  0.22669364  0.19223181  0.16180270    -0.56500
O311        O  0.28048825  0.22206739  0.08782268    -0.56400
O312        O  0.24872101  0.19978781  0.04379805    -0.55600
O313        O  0.69994102  0.10476556  0.49311482    -0.56800
C314        C  0.74186092  0.10736921  0.06307839     0.75800
O315        O  0.74005137  0.16300927  0.05379804    -0.58000
C316        C  0.69383989  0.11554484  0.47929572     0.75800
C317        C  0.69367799  0.11805959  0.10302527     0.78200
Cd318      Cd  0.72085754  0.12754750  0.04234184     1.37500
O319        O  0.73782608  0.10867459  0.02960262    -0.56800
O320        O  0.69268052  0.10562984  0.07958106    -0.55600
C321        C  0.75351572  0.16636620  0.03044229     0.78100
O322        O  0.70743513  0.13553353  0.09828630    -0.58000
O323        O  0.73625057  0.11545056  0.08673025    -0.56500
O324        O  0.70065265  0.13241782  0.99458230    -0.56400
O325        O  0.75134367  0.15182827  0.01173851    -0.55600
O326        O  0.78383791  0.06165200  0.13690068    -0.56800
C327        C  0.79317472  0.02493271  0.19664142     0.75800
O328        O  0.81468864  0.03638049  0.07208228    -0.58000
C329        C  0.78525709  0.06805797  0.10430661     0.75800
C330        C  0.84551178  0.08136654  0.14144592     0.78200
Cd331      Cd  0.80629439  0.04849980  0.12927915     1.37500
O332        O  0.80918925  0.02890941  0.18044740    -0.56800
O333        O  0.83005425  0.08028161  0.15513914    -0.55600
C334        C  0.79812134  0.02081270  0.07001576     0.78100
O335        O  0.84307877  0.06646837  0.12359827    -0.58000
O336        O  0.78352143  0.03220644  0.18215875    -0.56500
O337        O  0.79635558  0.06520926  0.08268290    -0.56400
O338        O  0.78598125  0.01801814  0.09574988    -0.55600
O339        O  0.74789034  0.96688417  0.33698718    -0.56800
C340        C  0.70548979  0.92854259  0.39746192     0.75800
O341        O  0.76136419  0.92137369  0.39683836    -0.58000
C342        C  0.76419366  0.97116249  0.32168441     0.75800
C343        C  0.76764343  0.96667704  0.44687288     0.78200
Cd344      Cd  0.74749119  0.94331616  0.38248729     1.37500
O345        O  0.71115679  0.92559804  0.36643824    -0.56800
O346        O  0.75509624  0.94864269  0.44953695    -0.55600
C347        C  0.75178024  0.90896902  0.37176567     0.78100
O348        O  0.77148061  0.97352284  0.41436943    -0.58000
O349        O  0.71914053  0.93889795  0.42006721    -0.56500
O350        O  0.77269195  0.96217751  0.33390144    -0.56400
O351        O  0.74105195  0.91294431  0.35147312    -0.55600
O352        O  0.55837237  0.85952178  0.02395385    -0.56800
C353        C  0.62403069  0.89070101  0.44910573     0.75800
O354        O  0.56739714  0.83199824  0.46431394    -0.58000
C355        C  0.56873193  0.87469549  0.04319878     0.75800
C356        C  0.56181524  0.87461580  0.41946217     0.78200
Cd357      Cd  0.58357069  0.86724557  0.47561444     1.37500
O358        O  0.61932723  0.89251990  0.48188836    -0.56800
O359        O  0.57194495  0.88731607  0.44371611    -0.55600
C360        C  0.57923945  0.82882746  0.48298296     0.78100
O361        O  0.56152772  0.85845866  0.42179306    -0.58000
O362        O  0.61006399  0.87833005  0.42905881    -0.56500
O363        O  0.58621163  0.88577967  0.03188125    -0.56400
O364        O  0.59318074  0.84339343  0.99995231    -0.55600
O365        O  0.54764771  0.91642302  0.18001623    -0.56800
C366        C  0.54657115  0.95202678  0.24415052     0.75800
O367        O  0.48762339  0.89497590  0.24351139    -0.58000
C368        C  0.53842839  0.89938045  0.16632808     0.75800
C369        C  0.52825281  0.89294217  0.29372840     0.78200
Cd370      Cd  0.52296222  0.91063128  0.22825644     1.37500
O371        O  0.52858204  0.94407696  0.23459592    -0.56800
O372        O  0.52726811  0.88561901  0.26205053    -0.55600
C373        C  0.48239395  0.90139547  0.21619684     0.78100
O374        O  0.52519059  0.90725715  0.29493045    -0.58000
O375        O  0.55394963  0.94091260  0.24495513    -0.56500
O376        O  0.52167317  0.88796593  0.18026876    -0.56400
O377        O  0.49584291  0.91140419  0.19298087    -0.55600
O378        O  0.60872943  0.04351854  0.28303058    -0.56800
C379        C  0.63889395  0.08773572  0.35499482     0.75800
O380        O  0.64028921  0.10192852  0.25257793    -0.58000
C381        C  0.59000338  0.03458020  0.28183042     0.75800
C382        C  0.58322277  0.08744537  0.29631328     0.78200
Cd383      Cd  0.61330523  0.07644268  0.29013615     1.37500
O384        O  0.63048420  0.07040198  0.34260288    -0.56800
O385        O  0.58900998  0.08145916  0.32345698    -0.55600
C386        C  0.63786040  0.09110910  0.22481741     0.78100
O387        O  0.59246064  0.08981295  0.26616093    -0.58000
O388        O  0.63518968  0.09948904  0.33772724    -0.56500
O389        O  0.58198361  0.04500550  0.28623300    -0.56400
O390        O  0.62357372  0.07381560  0.22682711    -0.55600
O391        O  0.35304909  0.91353211  0.18504453    -0.56800
C392        C  0.40122005  0.95178490  0.23940633     0.75800
O393        O  0.35987719  0.91259468  0.28062943    -0.58000
C394        C  0.34881616  0.89860508  0.16551542     0.75800
C395        C  0.40775254  0.90043835  0.21852728     0.78200
Cd396      Cd  0.37671022  0.91024923  0.22640384     1.37500
O397        O  0.39817110  0.93899318  0.26353860    -0.56800
O398        O  0.40489128  0.91062079  0.19493783    -0.55600
C399        C  0.35166660  0.89492422  0.29064411     0.78100
O400        O  0.39548363  0.89380691  0.24492696    -0.58000
O401        O  0.39304830  0.94535661  0.20822140    -0.56500
O402        O  0.35761417  0.88931819  0.17408368    -0.56400
O403        O  0.35463580  0.88356562  0.27012357    -0.55600
O404        O  0.50150037  0.08957477  0.27365398    -0.56800
C405        C  0.45466052  0.09077396  0.23407541     0.75800
O406        O  0.44945457  0.04029077  0.31132957    -0.58000
C407        C  0.50739378  0.08373153  0.30086473     0.75800
C408        C  0.45602515  0.09049550  0.35787918     0.78200
Cd409      Cd  0.46707297  0.07552490  0.29456691     1.37500
O410        O  0.47276453  0.09822807  0.24272728    -0.56800
O411        O  0.47193429  0.10123994  0.34060949    -0.55600
C412        C  0.44711140  0.03409517  0.27827317     0.78100
O413        O  0.44582543  0.07313011  0.34609084    -0.58000
O414        O  0.44252663  0.07684936  0.25419827    -0.56500
O415        O  0.49468663  0.07457139  0.32571368    -0.56400
O416        O  0.45438223  0.04703195  0.25340530    -0.55600
O417        O  0.43838709  0.13039214  0.50155312    -0.56800
C418        C  0.37152444  0.10921959  0.06167129     0.75800
O419        O  0.43912707  0.13491273  0.09290057    -0.58000
C420        C  0.42668421  0.11624005  0.48116421     0.75800
C421        C  0.42098512  0.16810097  0.03429595     0.78200
Cd422      Cd  0.41329692  0.12870667  0.04506817     1.37500
O423        O  0.37868002  0.10327720  0.03660533    -0.56800
O424        O  0.41100005  0.15471984  0.01102794    -0.55600
C425        C  0.42930305  0.11828106  0.10782797     0.78100
O426        O  0.42806726  0.16332426  0.06122075    -0.58000
O427        O  0.38373957  0.12452885  0.07892220    -0.56500
O428        O  0.40884127  0.10843601  0.98954571    -0.56400
O429        O  0.41263005  0.10697419  0.09346417    -0.55600
O430        O  0.24845718  0.02846677  0.15516638    -0.56800
C431        C  0.28738618  0.06571207  0.09372862     0.75800
O432        O  0.24807706  0.03966419  0.03816163    -0.58000
C433        C  0.23040097  0.01911263  0.16428481     0.75800
C434        C  0.23718221  0.07918646  0.11187373     0.78200
Cd435      Cd  0.24500466  0.04698477  0.10324307     1.37500
O436        O  0.27620001  0.04790506  0.08521685    -0.56800
O437        O  0.24489790  0.07419526  0.13731127    -0.55600
C438        C  0.23027841  0.02642843  0.03399047     0.78100
O439        O  0.23224721  0.06869145  0.08291025    -0.58000
O440        O  0.27899131  0.07430460  0.10841990    -0.56500
O441        O  0.21896681  0.02266849  0.14522457    -0.56400
O442        O  0.21899471  0.02327714  0.06148690    -0.55600
O443        O  0.21540555  0.96019491  0.30585850    -0.56800
C444        C  0.21077127  0.92229576  0.38661108     0.75800
O445        O  0.21417886  0.97000587  0.39323779    -0.58000
C446        C  0.20464381  0.96561472  0.28934320     0.75800
C447        C  0.15216941  0.90893015  0.35091460     0.78200
Cd448      Cd  0.19146760  0.94241308  0.35662103     1.37500
O449        O  0.21039568  0.92506511  0.35212684    -0.56800
O450        O  0.16647541  0.91093869  0.33111280    -0.55600
C451        C  0.20163591  0.97286997  0.41019866     0.78100
O452        O  0.15568095  0.92317037  0.37205412    -0.58000
O453        O  0.20222551  0.92889816  0.40702577    -0.56500
O454        O  0.18758526  0.95950374  0.30294780    -0.56400
O455        O  0.18364416  0.96160727  0.40172753    -0.55600
O456        O  0.28756520  0.88354875  0.02909525    -0.56800
C457        C  0.25169027  0.88344276  0.44418896     0.75800
O458        O  0.28703849  0.85548694  0.42404330    -0.58000
C459        C  0.29443086  0.87297579  0.04084569     0.75800
C460        C  0.23605905  0.82610052  0.48596698     0.78200
Cd461      Cd  0.27076623  0.86342930  0.47444953     1.37500
O462        O  0.25748540  0.88588097  0.47761909    -0.56800
O463        O  0.23816427  0.84151133  0.00119436    -0.55600
C464        C  0.30034378  0.87309368  0.41854512     0.78100
O465        O  0.25046554  0.82793939  0.46658760    -0.58000
O466        O  0.25501059  0.87195391  0.42489519    -0.56500
O467        O  0.28962418  0.85751379  0.02257621    -0.56400
O468        O  0.30007624  0.88577163  0.43973479    -0.55600
C469        C  0.22977511  0.90490515  0.37737822    -0.11300
C470        C  0.22080605  0.91202291  0.40195526     0.05700
C471        C  0.22188612  0.90933170  0.44044485    -0.06600
C472        C  0.23215348  0.90016520  0.45342082    -0.07300
C473        C  0.24125712  0.89324270  0.42885226    -0.01900
C474        C  0.23984433  0.89553326  0.39037648     0.05000
N475        N  0.24902195  0.88899580  0.36401881     0.67500
H476        H  0.22913366  0.90671405  0.34783835     0.16400
H477        H  0.23278530  0.89827320  0.48294213     0.16100
N478        N  0.21260384  0.91566815  0.46694796     0.75200
O479        O  0.23859203  0.87321271  0.34658369    -0.38300
O480        O  0.26622679  0.90079059  0.35262257    -0.38200
O481        O  0.19590952  0.90343505  0.47984419    -0.38900
O482        O  0.22304469  0.93202715  0.98325524    -0.39000
C483        C  0.20263908  0.00330591  0.99334031    -0.11300
C484        C  0.22310600  0.01477811  0.99945022     0.05700
C485        C  0.23621333  0.01371067  0.97372332    -0.06600
C486        C  0.22862172  0.00062814  0.44395453    -0.07300
C487        C  0.20819703  0.98827086  0.43904764    -0.01900
C488        C  0.19503258  0.99012095  0.46343462     0.05000
N489        N  0.17408613  0.97829931  0.45939179     0.67500
H490        H  0.19232319  0.00407561  0.01246631     0.16400
H491        H  0.23906641  0.99967638  0.42543581     0.16100
N492        N  0.25716277  0.02445045  0.97882820     0.75200
O493        O  0.16502426  0.96241013  0.47692473    -0.38300
O494        O  0.16442467  0.98569851  0.44562473    -0.38200
O495        O  0.26569581  0.01575778  0.99199182    -0.38900
O496        O  0.26723649  0.04026917  0.96149888    -0.39000
C497        C  0.23723950  0.00219729  0.21557591    -0.11300
C498        C  0.22334148  0.00492659  0.19553923     0.05700
C499        C  0.20321457  0.99413308  0.20612690    -0.06600
C500        C  0.19754801  0.98117063  0.23605841    -0.07300
C501        C  0.21147721  0.97863346  0.25636886    -0.01900
C502        C  0.23158963  0.98934485  0.24569187     0.05000
N503        N  0.24667243  0.98806075  0.26587134     0.67500
H504        H  0.25277564  0.01032366  0.20822271     0.16400
H505        H  0.18204646  0.97319962  0.24370945     0.16100
N506        N  0.18827996  0.99632341  0.18742681     0.75200
O507        O  0.25290152  0.97701915  0.25400030    -0.38300
O508        O  0.25689375  0.00121274  0.28923276    -0.38200
O509        O  0.17705805  0.98336891  0.16460006    -0.38900
O510        O  0.18325739  0.00814736  0.20021288    -0.39000
C511        C  0.33866793  0.07909225  0.05771972    -0.11300
C512        C  0.35009138  0.09840505  0.07052795     0.05700
C513        C  0.34074295  0.10670421  0.09143170    -0.06600
C514        C  0.32047645  0.09564158  0.09912613    -0.07300
C515        C  0.30902407  0.07629110  0.08633655    -0.01900
C516        C  0.31841124  0.06804464  0.06532260     0.05000
N517        N  0.30760375  0.04877744  0.05012359     0.67500
H518        H  0.34547690  0.07241319  0.04150821     0.16400
H519        H  0.31364260  0.10243037  0.11492243     0.16100
N520        N  0.35133182  0.12654555  0.10394799     0.75200
O521        O  0.30208646  0.04675685  0.01677828    -0.38300
O522        O  0.30842824  0.03495046  0.06597372    -0.38200
O523        O  0.34976887  0.13947625  0.08616953    -0.38900
O524        O  0.35803774  0.13018841  0.13657525    -0.39000
C525        C  0.46131749  0.11587037  0.18567405    -0.11300
C526        C  0.44807363  0.09786690  0.20204492     0.05700
C527        C  0.42881311  0.08687981  0.18712155    -0.06600
C528        C  0.42323235  0.09399525  0.15680521    -0.07300
C529        C  0.43638591  0.11198565  0.14037237    -0.01900
C530        C  0.45567769  0.12303629  0.15524375     0.05000
N531        N  0.46982177  0.14142165  0.13978652     0.67500
H532        H  0.47617299  0.12455202  0.19664831     0.16400
H533        H  0.40837886  0.08514963  0.14592505     0.16100
N534        N  0.41482777  0.06812768  0.20149019     0.75200
O535        O  0.47125750  0.15695427  0.15286895    -0.38300
O536        O  0.48363114  0.14240079  0.11994828    -0.38200
O537        O  0.40068806  0.06647218  0.22118953    -0.38900
O538        O  0.41402223  0.05297827  0.18782512    -0.39000
C539        C  0.42954795  0.08584470  0.40163312    -0.11300
C540        C  0.44914145  0.09755936  0.38961724     0.05700
C541        C  0.46125900  0.11554095  0.40790633    -0.06600
C542        C  0.45359464  0.12132571  0.43743132    -0.07300
C543        C  0.43394093  0.10959026  0.44932260    -0.01900
C544        C  0.42188122  0.09161847  0.43097445     0.05000
N545        N  0.40214039  0.07896781  0.94196799     0.67500
H546        H  0.41992406  0.07200276  0.38807064     0.16400
H547        H  0.46317278  0.13512298  0.45116838     0.16100
N548        N  0.48145660  0.12794466  0.39758192     0.75200
O549        O  0.38825291  0.07945835  0.92494404    -0.38300
O550        O  0.39831671  0.06426945  0.96155967    -0.38200
O551        O  0.48613240  0.14315176  0.37894031    -0.38900
O552        O  0.49481224  0.12628078  0.41410369    -0.39000
C553        C  0.34044360  0.90308480  0.34857706    -0.11300
C554        C  0.33946358  0.88852307  0.32471761     0.05700
C555        C  0.32672989  0.86869468  0.33389693    -0.06600
C556        C  0.31455709  0.86395902  0.36523664    -0.07300
C557        C  0.31495002  0.87862892  0.38812892    -0.01900
C558        C  0.32855442  0.89841019  0.38000179     0.05000
N559        N  0.33034167  0.91408254  0.40280656     0.67500
H560        H  0.35045766  0.91841190  0.34273241     0.16400
H561        H  0.30443027  0.84867195  0.37116367     0.16100
N562        N  0.32550381  0.85318150  0.31137682     0.75200
O563        O  0.34331275  0.92082038  0.42797187    -0.38300
O564        O  0.32242478  0.92388985  0.39247732    -0.38200
O565        O  0.33411712  0.84405057  0.32183764    -0.38900
O566        O  0.31235993  0.84577778  0.28660227    -0.39000
C567        C  0.31188517  0.89594664  0.09293141    -0.11300
C568        C  0.30769566  0.87877576  0.07365772     0.05700
C569        C  0.31689408  0.86811494  0.08539472    -0.06600
C570        C  0.32998612  0.87480114  0.11546062    -0.07300
C571        C  0.33441210  0.89212442  0.13439649    -0.01900
C572        C  0.32509149  0.90270552  0.12286474     0.05000
N573        N  0.32905625  0.92055489  0.14054689     0.67500
H574        H  0.30509574  0.90439923  0.08451185     0.16400
H575        H  0.33689034  0.86642024  0.12365828     0.16100
N576        N  0.31361372  0.85072318  0.06671334     0.75200
O577        O  0.34090915  0.93663335  0.12551620    -0.38300
O578        O  0.31740119  0.92017034  0.16525463    -0.38200
O579        O  0.32524579  0.85197718  0.04115115    -0.38900
O580        O  0.30247811  0.83430321  0.08132252    -0.39000
C581        C  0.42100347  0.97851114  0.28426176    -0.11300
C582        C  0.41349142  0.97297611  0.24811744     0.05700
C583        C  0.41762797  0.98779913  0.22188815    -0.06600
C584        C  0.42888547  0.00750979  0.23226223    -0.07300
C585        C  0.43605602  0.01299218  0.26859150    -0.01900
C586        C  0.43207070  0.99820113  0.29470277     0.05000
N587        N  0.43932138  0.00282192  0.33183044     0.67500
H588        H  0.41814553  0.96746675  0.30494074     0.16400
H589        H  0.43168217  0.01861895  0.21175321     0.16100
N590        N  0.41035939  0.98322726  0.18476376     0.75200
O591        O  0.42799798  0.00248907  0.35718609    -0.38300
O592        O  0.45505221  0.00286841  0.34035339    -0.38200
O593        O  0.39476513  0.98344621  0.17621502    -0.38900
O594        O  0.42160639  0.98339327  0.15941815    -0.39000
C595        C  0.55311751  0.08144453  0.33027431    -0.11300
C596        C  0.56554926  0.08983220  0.29953820     0.05700
C597        C  0.55951502  0.09809055  0.27127607    -0.06600
C598        C  0.54084392  0.09660457  0.27307857    -0.07300
C599        C  0.52784052  0.08694985  0.30258795    -0.01900
C600        C  0.53442107  0.07978931  0.33195214     0.05000
N601        N  0.52205374  0.06989466  0.36291009     0.67500
H602        H  0.55740881  0.07509322  0.35242479     0.16400
H603        H  0.53634010  0.10259943  0.25063122     0.16100
N604        N  0.57198038  0.10790581  0.24039733     0.75200
O605        O  0.51106630  0.05154763  0.36165161    -0.38300
O606        O  0.52557345  0.07855820  0.39378863    -0.38200
O607        O  0.56844972  0.09923379  0.20952492    -0.38900
O608        O  0.58289203  0.12626133  0.24157666    -0.39000
C609        C  0.44926449  0.89030032  0.24393215    -0.11300
C610        C  0.46194192  0.89824332  0.21331775     0.05700
C611        C  0.45529209  0.90445833  0.18254588    -0.06600
C612        C  0.43709898  0.90403289  0.18415989    -0.07300
C613        C  0.42511221  0.89743260  0.21590872    -0.01900
C614        C  0.43106596  0.88983278  0.24551591     0.05000
N615        N  0.41945674  0.88259263  0.27839173     0.67500
H616        H  0.45382614  0.88518240  0.26767629     0.16400
H617        H  0.43267968  0.90952172  0.16077505     0.16100
N618        N  0.46686312  0.91159776  0.14961611     0.75200
O619        O  0.40777831  0.86445096  0.28167058    -0.38300
O620        O  0.42407495  0.89343453  0.30671143    -0.38200
O621        O  0.46277158  0.90026011  0.12215930    -0.38900
O622        O  0.47727812  0.92981963  0.14481070    -0.39000
C623        C  0.58854144  0.00274890  0.27064904    -0.11300
C624        C  0.57839066  0.01322735  0.27444463     0.05700
C625        C  0.55767271  0.00324640  0.26898979    -0.06600
C626        C  0.54777474  0.98344198  0.25896248    -0.07300
C627        C  0.55798872  0.97305462  0.25447955    -0.01900
C628        C  0.57862204  0.98291365  0.26088455     0.05000
N629        N  0.58992579  0.97324853  0.25690527     0.67500
H630        H  0.60439008  0.01002184  0.27472425     0.16400
H631        H  0.53193218  0.97617168  0.25479508     0.16100
N632        N  0.54636788  0.01291306  0.27309221     0.75200
O633        O  0.59813911  0.97408956  0.22629166    -0.38300
O634        O  0.59550931  0.96817913  0.28552152    -0.38200
O635        O  0.54125208  0.01855226  0.24462677    -0.38900
O636        O  0.53793711  0.01183368  0.30356360    -0.39000
C637        C  0.53424137  0.87504706  0.11800296    -0.11300
C638        C  0.54663336  0.89294073  0.13581373     0.05700
C639        C  0.56657416  0.90396495  0.12450410    -0.06600
C640        C  0.57344420  0.89741354  0.09501786    -0.07300
C641        C  0.56091538  0.87983052  0.07635245    -0.01900
C642        C  0.54116470  0.86837411  0.08871849     0.05000
N643        N  0.52781893  0.84994616  0.07208635     0.67500
H644        H  0.51903235  0.86617505  0.12661779     0.16400
H645        H  0.58867647  0.90631320  0.08656639     0.16100
N646        N  0.58026245  0.92167350  0.14296784     0.75200
O647        O  0.52589446  0.83449398  0.08635414    -0.38300
O648        O  0.51467712  0.84881905  0.05016855    -0.38200
O649        O  0.59151532  0.92119404  0.16756188    -0.38900
O650        O  0.58413676  0.93789623  0.12920780    -0.39000
C651        C  0.54034951  0.89878526  0.35841656    -0.11300
C652        C  0.53412045  0.88635042  0.32736022     0.05700
C653        C  0.53578134  0.86929574  0.32811038    -0.06600
C654        C  0.54413428  0.86543353  0.35901354    -0.07300
C655        C  0.55134588  0.87845728  0.38921787    -0.01900
C656        C  0.54912354  0.89519151  0.38886365     0.05000
N657        N  0.55629077  0.90913443  0.41845182     0.67500
H658        H  0.53935128  0.91202393  0.35846744     0.16400
H659        H  0.54558680  0.85245018  0.35868624     0.16100
N660        N  0.52956840  0.85597056  0.29752260     0.75200
O661        O  0.57327357  0.92403996  0.41593512    -0.38300
O662        O  0.54422121  0.90902976  0.44190752    -0.38200
O663        O  0.54238786  0.85626718  0.27571917    -0.38900
O664        O  0.51231300  0.84137091  0.29733876    -0.39000
C665        C  0.67966649  0.92600836  0.44152717    -0.11300
C666        C  0.68425587  0.92005269  0.40794569     0.05700
C667        C  0.66857427  0.90534681  0.38687769    -0.06600
C668        C  0.64912271  0.89645426  0.40040761    -0.07300
C669        C  0.64468733  0.90183481  0.43478820    -0.01900
C670        C  0.66022272  0.91717883  0.45495158     0.05000
N671        N  0.65664223  0.92404662  0.48916572     0.67500
H672        H  0.69131806  0.93745476  0.45799410     0.16400
H673        H  0.63748780  0.88486007  0.38416523     0.16100
N674        N  0.67208586  0.89866406  0.35237183     0.75200
O675        O  0.66019784  0.91832222  0.51930241    -0.38300
O676        O  0.65461505  0.93848713  0.99000234    -0.38200
O677        O  0.67330671  0.88328182  0.35159988    -0.38900
O678        O  0.66924242  0.90521124  0.32254931    -0.39000
C679        C  0.79342200  0.99813974  0.47458654    -0.11300
C680        C  0.77690612  0.97942025  0.47968332     0.05700
C681        C  0.76872873  0.97397605  0.51553572    -0.06600
C682        C  0.77714136  0.98745297  0.04467004    -0.07300
C683        C  0.79266949  0.00661722  0.03914107    -0.01900
C684        C  0.80137007  0.01199526  0.00368225     0.05000
N685        N  0.81723999  0.03130188  0.99641752     0.67500
H686        H  0.80004539  0.00259993  0.44740435     0.16400
H687        H  0.77040972  0.98296192  0.07177325     0.16100
N688        N  0.75192239  0.95522831  0.52263582     0.75200
O689        O  0.83471647  0.03431763  0.99458584    -0.38300
O690        O  0.81343652  0.04408259  0.98431429    -0.38200
O691        O  0.75446779  0.94194497  0.53641262    -0.38900
O692        O  0.73491562  0.95347257  0.52339392    -0.39000
C693        C  0.76114988  0.99364385  0.27711654    -0.11300
C694        C  0.77250734  0.98573990  0.29103639     0.05700
C695        C  0.79126638  0.99183814  0.27498826    -0.06600
C696        C  0.79772559  0.00474948  0.24480426    -0.07300
C697        C  0.78605840  0.01215012  0.23010709    -0.01900
C698        C  0.76768168  0.00670178  0.24725001     0.05000
N699        N  0.75521346  0.01400435  0.23459592     0.67500
H700        H  0.74685345  0.98948416  0.28915478     0.16400
H701        H  0.81202058  0.00893586  0.23273469     0.16100
N702        N  0.80413649  0.98532590  0.28908004     0.75200
O703        O  0.74167346  0.00407871  0.21155312    -0.38300
O704        O  0.75454018  0.02737151  0.25279238    -0.38200
O705        O  0.80620415  0.97265748  0.27122450    -0.38900
O706        O  0.81661600  0.99532299  0.31374301    -0.39000
C707        C  0.66253762  0.09324723  0.13251621    -0.11300
C708        C  0.67928369  0.11201903  0.13391275     0.05700
C709        C  0.68192754  0.12404865  0.16494847    -0.06600
C710        C  0.66793585  0.11715300  0.19357112    -0.07300
C711        C  0.65137708  0.09821235  0.19246286    -0.01900
C712        C  0.64875868  0.08622195  0.16131575     0.05000
N713        N  0.63250218  0.06668200  0.15860986     0.67500
H714        H  0.66016715  0.08371692  0.10906461     0.16400
H715        H  0.67042498  0.12652961  0.21732335     0.16100
N716        N  0.69920199  0.14283741  0.16900467     0.75200
O717        O  0.61794235  0.06322922  0.13827693    -0.38300
O718        O  0.63476590  0.05264783  0.16906328    -0.38200
O719        O  0.69807987  0.15802452  0.16300281    -0.38900
O720        O  0.71391608  0.14428246  0.18641797    -0.39000
C721        C  0.66027762  0.11360871  0.40026995    -0.11300
C722        C  0.65248931  0.09426678  0.38750951     0.05700
C723        C  0.65826243  0.08201122  0.40563994    -0.06600
C724        C  0.67176764  0.08933038  0.43512720    -0.07300
C725        C  0.67968235  0.10872778  0.44765705    -0.01900
C726        C  0.67361891  0.12086036  0.42998647     0.05000
N727        N  0.68084677  0.14063635  0.44154283     0.67500
H728        H  0.65606410  0.12329342  0.38709223     0.16400
H729        H  0.67596036  0.07964750  0.44838038     0.16100
N730        N  0.65064971  0.06208387  0.39470651     0.75200
O731        O  0.69553170  0.15424759  0.42515362    -0.38300
O732        O  0.67006860  0.14469364  0.46154385    -0.38200
O733        O  0.66128735  0.05754198  0.37540183    -0.38900
O734        O  0.63585480  0.04881839  0.41147315    -0.39000
C735        C  0.76273955  0.08095628  0.11920270    -0.11300
C736        C  0.77444096  0.07827885  0.09276966     0.05700
C737        C  0.77527367  0.08526888  0.05638501    -0.06600
C738        C  0.76436800  0.09445534  0.04725147    -0.07300
C739        C  0.75273566  0.09714207  0.07381129    -0.01900
C740        C  0.75199877  0.09025700  0.11015776     0.05000
N741        N  0.73988722  0.09192065  0.13806548     0.67500
H742        H  0.76173011  0.07567286  0.14716074     0.16400
H743        H  0.76528621  0.09978856  0.01935567     0.16100
N744        N  0.78717412  0.08336683  0.02833270     0.75200
O745        O  0.72207192  0.07858600  0.14112345    -0.38300
O746        O  0.74792736  0.10407262  0.16413561    -0.38200
O747        O  0.77893775  0.07093207  0.00276445    -0.38900
O748        O  0.80493217  0.09672381  0.02454076    -0.39000
C749        C  0.22669599  0.10179014  0.08498683    -0.11300
C750        C  0.23484950  0.09678719  0.11490565     0.05700
C751        C  0.24197562  0.10957303  0.14575655    -0.06600
C752        C  0.24195179  0.12730751  0.14512308    -0.07300
C753        C  0.23508499  0.13295250  0.11419498    -0.01900
C754        C  0.22676381  0.11963862  0.08430038     0.05000
N755        N  0.21908516  0.12424155  0.05231768     0.67500
H756        H  0.22089648  0.09214613  0.06118069     0.16400
H757        H  0.24812475  0.13707188  0.16868867     0.16100
N758        N  0.25018733  0.10533984  0.17739107     0.75200
O759        O  0.23034690  0.13253324  0.02513784    -0.38300
O760        O  0.20059765  0.11623933  0.04798927    -0.38200
O761        O  0.26873041  0.11306637  0.18021037    -0.38900
O762        O  0.23954206  0.09792713  0.20566689    -0.39000
C763        C  0.41422083  0.21119051  0.00831839    -0.11300
C764        C  0.42618246  0.22516960  0.03489994     0.05700
C765        C  0.43790392  0.22082353  0.05860360    -0.06600
C766        C  0.43660907  0.20247868  0.05661055    -0.07300
C767        C  0.42375425  0.18809193  0.03150457    -0.01900
C768        C  0.41282009  0.19280559  0.00649868     0.05000
N769        N  0.39929455  0.17880163  0.98056204     0.67500
H770        H  0.40513002  0.21416152  0.98967309     0.16400
H771        H  0.44534063  0.19930680  0.07580193     0.16100
N772        N  0.45064827  0.23447929  0.08584130     0.75200
O773        O  0.38128337  0.16854922  0.98922667    -0.38300
O774        O  0.40428419  0.17990568  0.94700980    -0.38200
O775        O  0.44511001  0.23232147  0.11919636    -0.38900
O776        O  0.46861933  0.24560783  0.57755248    -0.39000
C777        C  0.32552711  0.22167443  0.11418949    -0.11300
C778        C  0.31348788  0.22704895  0.09424673     0.05700
C779        C  0.32239804  0.24191568  0.06732723    -0.06600
C780        C  0.34262310  0.25047807  0.06005712    -0.07300
C781        C  0.35460832  0.24485736  0.07932303    -0.01900
C782        C  0.34590196  0.23050119  0.10726584     0.05000
N783        N  0.35737439  0.22462115  0.12893485     0.67500
H784        H  0.31912000  0.21048416  0.13524543     0.16400
H785        H  0.34890608  0.26157982  0.03881643     0.16100
N786        N  0.31112445  0.24796384  0.04556856     0.75200
O787        O  0.36366384  0.23241609  0.16026192    -0.38300
O788        O  0.35709081  0.20886224  0.12107651    -0.38200
O789        O  0.30972911  0.26253071  0.05605108    -0.38900
O790        O  0.30788219  0.24275505  0.01205691    -0.39000
C791        C  0.23355427  0.22351770  0.95042688    -0.11300
C792        C  0.21661694  0.22541807  0.45299524     0.05700
C793        C  0.20421990  0.21760299  0.48426896    -0.06600
C794        C  0.20966067  0.20927284  0.01300801    -0.07300
C795        C  0.22716586  0.20830121  0.01115985    -0.01900
C796        C  0.23880289  0.21494904  0.97871360     0.05000
N797        N  0.25657286  0.21409087  0.97447364     0.67500
H798        H  0.24310531  0.22903170  0.92638868     0.16400
H799        H  0.20031988  0.20400991  0.03734705     0.16100
N800        N  0.18638414  0.21841015  0.48798267     0.75200
O801        O  0.25578117  0.19932953  0.95899143    -0.38300
O802        O  0.27294884  0.22976039  0.97634145    -0.38200
O803        O  0.17013147  0.20361561  0.47918960    -0.38900
O804        O  0.18634455  0.23159603  0.50787522    -0.39000
C805        C  0.21278246  0.21483870  0.26068959    -0.11300
C806        C  0.22409016  0.23509504  0.26741703     0.05700
C807        C  0.24026520  0.24648841  0.24382282    -0.06600
C808        C  0.24470814  0.23757293  0.21450671    -0.07300
C809        C  0.23327709  0.21735477  0.20760764    -0.01900
C810        C  0.21719045  0.20594366  0.23132004     0.05000
N811        N  0.20544024  0.18522078  0.22681428     0.67500
H812        H  0.20047315  0.20569047  0.27855432     0.16400
H813        H  0.25703741  0.24667544  0.19664260     0.16100
N814        N  0.25214342  0.26718623  0.24849864     0.75200
O815        O  0.20998647  0.17424206  0.24455141    -0.38300
O816        O  0.18839698  0.17804565  0.21275892    -0.38200
O817        O  0.26924759  0.27423500  0.26222580    -0.38900
O818        O  0.24759297  0.27828008  0.23119064    -0.39000
C819        C  0.24330058  0.33323085  0.38057890    -0.11300
C820        C  0.23996566  0.31828609  0.40556822     0.05700
C821        C  0.24592033  0.32338810  0.44290162    -0.06600
C822        C  0.25459147  0.34296997  0.45437290    -0.07300
C823        C  0.25739910  0.35781475  0.42953784    -0.01900
C824        C  0.25184361  0.35275216  0.39207341     0.05000
N825        N  0.25487172  0.36719569  0.36506561     0.67500
H826        H  0.23900270  0.32977178  0.35178852     0.16400
H827        H  0.25882186  0.34648265  0.48318036     0.16100
N828        N  0.24324050  0.30897228  0.46971270     0.75200
O829        O  0.27027298  0.37442540  0.34534821    -0.38300
O830        O  0.24050869  0.36935736  0.35542489    -0.38200
O831        O  0.25791377  0.30737348  0.47954772    -0.38900
O832        O  0.22779550  0.30132071  0.48932231    -0.39000
C833        C  0.35339101  0.46751093  0.34937941    -0.11300
C834        C  0.34573433  0.45830842  0.31515022     0.05700
C835        C  0.32539402  0.44439734  0.31235422    -0.06600
C836        C  0.31335798  0.43962893  0.34359855    -0.07300
C837        C  0.32118074  0.44807883  0.37819529    -0.01900
C838        C  0.34137484  0.46238177  0.38090184     0.05000
N839        N  0.34996944  0.47178484  0.41530870     0.67500
H840        H  0.36892747  0.47827312  0.35205619     0.16400
H841        H  0.29792547  0.42852714  0.34096901     0.16100
N842        N  0.31665797  0.43470433  0.27822228     0.75200
O843        O  0.36081093  0.46687049  0.43286296    -0.38300
O844        O  0.35050980  0.48763368  0.42345772    -0.38200
O845        O  0.31352834  0.41755636  0.27281257    -0.38900
O846        O  0.30783566  0.44111405  0.25834017    -0.39000
C847        C  0.34788717  0.43803901  0.10220315    -0.11300
C848        C  0.34559309  0.44964064  0.12922226     0.05700
C849        C  0.32975498  0.45343679  0.12577485    -0.06600
C850        C  0.31729744  0.44652498  0.09482135    -0.07300
C851        C  0.31985057  0.43527093  0.06744010    -0.01900
C852        C  0.33513014  0.43072521  0.07171288     0.05000
N853        N  0.33834667  0.41920746  0.04490208     0.67500
H854        H  0.35976522  0.43474708  0.10446181     0.16400
H855        H  0.30533710  0.44970148  0.09259624     0.16100
N856        N  0.32537228  0.46332404  0.15429674     0.75200
O857        O  0.35084813  0.42761992  0.01946434    -0.38300
O858        O  0.33203790  0.40131961  0.05120270    -0.38200
O859        O  0.32902828  0.48063569  0.14910844    -0.38900
O860        O  0.31394606  0.45346816  0.18028164    -0.39000
C861        C  0.46285591  0.34085876  0.18436452    -0.11300
C862        C  0.44812394  0.33764578  0.21044366     0.05700
C863        C  0.42906064  0.32120950  0.20601064    -0.06600
C864        C  0.42485871  0.30918669  0.17500165    -0.07300
C865        C  0.43928164  0.31289254  0.14800023    -0.01900
C866        C  0.45865196  0.32862301  0.15341710     0.05000
N867        N  0.47407377  0.33281593  0.12740324     0.67500
H868        H  0.47766119  0.35323825  0.18742662     0.16400
H869        H  0.41000814  0.29685500  0.17203255     0.16100
N870        N  0.41373583  0.31632298  0.23267282     0.75200
O871        O  0.47752547  0.34508829  0.10205439    -0.38300
O872        O  0.48685409  0.32793850  0.13484128    -0.38200
O873        O  0.39952644  0.31909688  0.22492032    -0.38900
O874        O  0.41193213  0.30511381  0.25910240    -0.39000
C875        C  0.42781382  0.33436766  0.41031490    -0.11300
C876        C  0.44618943  0.34044780  0.39331631     0.05700
C877        C  0.45802464  0.33275314  0.40643332    -0.06600
C878        C  0.45155957  0.31974377  0.43635797    -0.07300
C879        C  0.43332119  0.31392281  0.45375051    -0.01900
C880        C  0.42128807  0.32127043  0.44003915     0.05000
N881        N  0.40253799  0.31595526  0.45620463     0.67500
H882        H  0.41833381  0.33985930  0.40060966     0.16400
H883        H  0.46100226  0.31420891  0.44606411     0.16100
N884        N  0.47669150  0.33798100  0.38999027     0.75200
O885        O  0.40140113  0.32718800  0.47986150    -0.38300
O886        O  0.38695341  0.30305674  0.44062615    -0.38200
O887        O  0.49236021  0.35102644  0.40508255    -0.38900
O888        O  0.47771236  0.32675148  0.36616665    -0.39000
C889        C  0.42829505  0.42265834  0.29816224    -0.11300
C890        C  0.43008508  0.41109938  0.27039653     0.05700
C891        C  0.42274646  0.41108661  0.23461062    -0.06600
C892        C  0.41387080  0.42243178  0.22746006    -0.07300
C893        C  0.41231031  0.43421502  0.25508718    -0.01900
C894        C  0.41969585  0.43424690  0.29086766     0.05000
N895        N  0.41877772  0.44600733  0.32017218     0.67500
H896        H  0.43396008  0.42303263  0.32575540     0.16400
H897        H  0.40836641  0.42213943  0.19975848     0.16100
N898        N  0.42395716  0.39954272  0.20518429     0.75200
O899        O  0.40448779  0.43854733  0.34261085    -0.38300
O900        O  0.43411219  0.46185608  0.32859468    -0.38200
O901        O  0.40877068  0.38363820  0.19644433    -0.38900
O902        O  0.43827103  0.40729518  0.18282781    -0.39000
C903        C  0.58983528  0.78701265  0.49709124    -0.11300
C904        C  0.57344076  0.77141447  0.47953034     0.05700
C905        C  0.55844084  0.77466658  0.46529109    -0.06600
C906        C  0.56036612  0.79327654  0.46801638    -0.07300
C907        C  0.57714650  0.80904922  0.48427526    -0.01900
C908        C  0.59190426  0.80566697  0.49933581     0.05000
N909        N  0.60960768  0.82113678  0.51525970     0.67500
H910        H  0.60162339  0.78497725  0.50815307     0.16400
H911        H  0.54929679  0.79552153  0.95582550     0.16100
N912        N  0.54197904  0.75958567  0.94621926     0.75200
O913        O  0.61090366  0.82329182  0.54998448    -0.38300
O914        O  0.62511673  0.82945374  0.49588434    -0.38200
O915        O  0.52568393  0.75079320  0.96315117    -0.38900
O916        O  0.54150870  0.75808674  0.41214623    -0.39000
C917        C  0.76231834  0.86685851  0.38459308    -0.11300
C918        C  0.74994302  0.85351360  0.35751391     0.05700
C919        C  0.73922987  0.85917459  0.33384725    -0.06600
C920        C  0.74062028  0.87747613  0.33845007    -0.07300
C921        C  0.75237906  0.89051379  0.36649195    -0.01900
C922        C  0.76353058  0.88508321  0.38946705     0.05000
N923        N  0.77560601  0.89746483  0.41881683     0.67500
H924        H  0.77066911  0.86289545  0.40319347     0.16400
H925        H  0.73199053  0.88127674  0.32024492     0.16100
N926        N  0.72654722  0.84648431  0.30539657     0.75200
O927        O  0.76860437  0.89479007  0.45117168    -0.38300
O928        O  0.79409250  0.90740070  0.41433523    -0.38200
O929        O  0.70806307  0.83752319  0.31032763    -0.38900
O930        O  0.73326041  0.84799767  0.27301523    -0.39000
C931        C  0.66400434  0.76181513  0.37428657    -0.11300
C932        C  0.67845042  0.76272104  0.39877914     0.05700
C933        C  0.67259290  0.75508936  0.43483887    -0.06600
C934        C  0.65279023  0.74699731  0.44565987    -0.07300
C935        C  0.63835466  0.74631338  0.42140428    -0.01900
C936        C  0.64419779  0.75387247  0.38521162     0.05000
N937        N  0.63041809  0.75400043  0.35926585     0.67500
H938        H  0.66814747  0.76772878  0.34661543     0.16400
H939        H  0.64874489  0.74117744  0.47340566     0.16100
N940        N  0.68642265  0.75509079  0.46080864     0.75200
O941        O  0.62856884  0.76899319  0.35694929    -0.38300
O942        O  0.62391830  0.74152562  0.33340907    -0.38200
O943        O  0.69281047  0.76755493  0.48668559    -0.38900
O944        O  0.68857139  0.74026890  0.46293892    -0.39000
C945        C  0.77995405  0.75763616  0.97751104    -0.11300
C946        C  0.78274536  0.76723483  0.01171421     0.05700
C947        C  0.78027383  0.78382078  0.01364716    -0.06600
C948        C  0.77385110  0.78966369  0.48235300    -0.07300
C949        C  0.76995428  0.77934841  0.44875089    -0.01900
C950        C  0.77366043  0.76347013  0.94624738     0.05000
N951        N  0.77076067  0.75289334  0.91242053     0.67500
H952        H  0.78203899  0.74508349  0.97512016     0.16400
H953        H  0.77123519  0.80188246  0.48488767     0.16100
N954        N  0.78300110  0.79432207  0.04751585     0.75200
O955        O  0.78509268  0.75821540  0.89035357    -0.38300
O956        O  0.75594111  0.73608966  0.40890047    -0.38200
O957        O  0.79895443  0.81012070  0.05294316    -0.38900
O958        O  0.76762462  0.78975373  0.56780878    -0.39000
C959        C  0.74533140  0.76174725  0.24026427    -0.11300
C960        C  0.75993456  0.77647583  0.26263597     0.05700
C961        C  0.78003998  0.78380638  0.25344833    -0.06600
C962        C  0.78505910  0.77599218  0.22316359    -0.07300
C963        C  0.77044395  0.76105093  0.20111759    -0.01900
C964        C  0.75034709  0.75414000  0.20967603     0.05000
N965        N  0.73474510  0.73966151  0.18739750     0.67500
H966        H  0.72983748  0.75605629  0.24640598     0.16400
H967        H  0.80055406  0.78167418  0.21705205     0.16100
N968        N  0.79564544  0.79897648  0.27466163     0.75200
O969        O  0.72586635  0.72207292  0.19788909    -0.38300
O970        O  0.72697166  0.74502093  0.16278304    -0.38200
O971        O  0.80507120  0.79460447  0.29750594    -0.38900
O972        O  0.80296773  0.81649427  0.26422414    -0.39000
C973        C  0.73332683  0.64635177  0.05663051    -0.11300
C974        C  0.73875448  0.63495133  0.07815945     0.05700
C975        C  0.75192602  0.64390853  0.10814039    -0.06600
C976        C  0.75983148  0.66391847  0.11506829    -0.07300
C977        C  0.75500720  0.67550211  0.09268786    -0.01900
C978        C  0.74120230  0.66638064  0.06365042     0.05000
N979        N  0.73491015  0.67711197  0.04100553     0.67500
H980        H  0.72298811  0.63973531  0.03391343     0.16400
H981        H  0.77037125  0.67051925  0.13749396     0.16100
N982        N  0.75831042  0.63323332  0.13074795     0.75200
O983        O  0.74294629  0.68329031  0.00986795    -0.38300
O984        O  0.71865960  0.67633960  0.04798390    -0.38200
O985        O  0.77482033  0.63445790  0.12436278    -0.38900
O986        O  0.74982198  0.62641037  0.16129850    -0.39000
C987        C  0.45905173  0.56216416  0.21615424    -0.11300
C988        C  0.47518059  0.56219778  0.19859104     0.05700
C989        C  0.47208203  0.54493106  0.18060825    -0.06600
C990        C  0.45354014  0.52793305  0.18244538    -0.07300
C991        C  0.43771657  0.52757332  0.20190217    -0.01900
C992        C  0.44047675  0.54516522  0.21788794     0.05000
N993        N  0.42488271  0.54598095  0.23718892     0.67500
H994        H  0.46095696  0.57529676  0.22963236     0.16400
H995        H  0.45179497  0.51473003  0.16955455     0.16100
N996        N  0.48778591  0.54397617  0.16202105     0.75200
O997        O  0.42343741  0.54359393  0.27182926    -0.38300
O998        O  0.41562869  0.55328043  0.22135677    -0.38200
O999        O  0.49673698  0.53649752  0.17835102    -0.38900
O1000       O  0.48959266  0.54640959  0.12741231    -0.39000
C1001       C  0.53404545  0.65972933  0.31674216    -0.11300
C1002       C  0.54784481  0.65423728  0.30505748     0.05700
C1003       C  0.56588079  0.66157071  0.32453475    -0.06600
C1004       C  0.56945972  0.67351088  0.35545114    -0.07300
C1005       C  0.55565727  0.67884919  0.36748978    -0.01900
C1006       C  0.53792386  0.67218085  0.34735499     0.05000
N1007       N  0.52359810  0.67759079  0.35780549     0.67500
H1008       H  0.52022123  0.65446217  0.30189484     0.16400
H1009       H  0.58336736  0.67876842  0.37003169     0.16100
N1010       N  0.58067196  0.65680479  0.31392969     0.75200
O1011       O  0.52418555  0.69238461  0.34313088    -0.38300
O1012       O  0.50817892  0.66543963  0.37473117    -0.38200
O1013       O  0.59606798  0.66948643  0.29766478    -0.38900
O1014       O  0.58050123  0.64210036  0.32808626    -0.39000
C1015       C  0.57205556  0.67215407  0.06711029    -0.11300
C1016       C  0.55991781  0.68014343  0.05872573     0.05700
C1017       C  0.54261674  0.67421977  0.07990447    -0.06600
C1018       C  0.53789927  0.66066671  0.10864769    -0.07300
C1019       C  0.55000529  0.65259439  0.11693464    -0.01900
C1020       C  0.56722513  0.65842809  0.09547975     0.05000
N1021       N  0.57980244  0.65029591  0.10138120     0.67500
H1022       H  0.58526561  0.67623421  0.05090804     0.16400
H1023       H  0.52467152  0.65657687  0.12478764     0.16100
N1024       N  0.52993641  0.68218097  0.07344495     0.75200
O1025       O  0.57685000  0.63540544  0.08305684    -0.38300
O1026       O  0.59602261  0.66024400  0.11820040    -0.38200
O1027       O  0.51333860  0.67179312  0.55767891    -0.38900
O1028       O  0.53286200  0.69725114  0.09108768    -0.39000
C1029       C  0.54363099  0.46511501  0.32768544    -0.11300
C1030       C  0.55822756  0.46696920  0.30249610     0.05700
C1031       C  0.55430489  0.45071092  0.27992875    -0.06600
C1032       C  0.53595513  0.43344056  0.28225814    -0.07300
C1033       C  0.52112644  0.43186350  0.30658144    -0.01900
C1034       C  0.52528208  0.44793143  0.32985888     0.05000
N1035       N  0.51082779  0.44749590  0.35482916     0.67500
H1036       H  0.54621328  0.47729645  0.34539102     0.16400
H1037       H  0.53318288  0.42132734  0.26418554     0.16100
N1038       N  0.56846012  0.45152574  0.25374796     0.75200
O1039       O  0.51105753  0.44301064  0.38826944    -0.38300
O1040       O  0.50115725  0.45579551  0.34580958    -0.38200
O1041       O  0.57822017  0.44310051  0.26109749    -0.38900
O1042       O  0.56772634  0.45635072  0.22074294    -0.39000
C1043       C  0.67015749  0.54183133  0.20701246    -0.11300
C1044       C  0.64971072  0.53209531  0.19991794     0.05700
C1045       C  0.64311755  0.52751208  0.16287010    -0.06600
C1046       C  0.65689187  0.53396540  0.13395875    -0.07300
C1047       C  0.67733144  0.54480995  0.14098313    -0.01900
C1048       C  0.68393076  0.54811727  0.17813483     0.05000
N1049       N  0.70450675  0.55844752  0.18727266     0.67500
H1050       H  0.67561885  0.54523340  0.23518066     0.16400
H1051       H  0.65145288  0.53085169  0.10574943     0.16100
N1052       N  0.62254152  0.51667089  0.15385244     0.75200
O1053       O  0.71283970  0.57651089  0.19446767    -0.38300
O1054       O  0.71290568  0.54891036  0.19640905    -0.38200
O1055       O  0.61393554  0.52558674  0.14213964    -0.38900
O1056       O  0.61434148  0.49836437  0.14972081    -0.39000
C1057       C  0.65416164  0.52904984  0.40662772    -0.11300
C1058       C  0.65046052  0.54294112  0.38952296     0.05700
C1059       C  0.66024932  0.56231185  0.40343205    -0.06600
C1060       C  0.67318402  0.56730586  0.43360563    -0.07300
C1061       C  0.67697800  0.55349293  0.45064526    -0.01900
C1062       C  0.66726195  0.53410999  0.43673744     0.05000
N1063       N  0.67031221  0.51927049  0.45282278     0.67500
H1064       H  0.64690767  0.51412758  0.39657109     0.16400
H1065       H  0.68041609  0.58225316  0.44353272     0.16100
N1066       N  0.65743278  0.57727707  0.38726991     0.75200
O1067       O  0.65872243  0.50849218  0.47781970    -0.38300
O1068       O  0.68127926  0.51406809  0.43645353    -0.38200
O1069       O  0.64642610  0.58252727  0.40333073    -0.38900
O1070       O  0.66923841  0.58807482  0.36254471    -0.39000
C1071       C  0.57233073  0.56355625  0.29166805    -0.11300
C1072       C  0.58671745  0.56386408  0.26770611     0.05700
C1073       C  0.59137184  0.57514242  0.23504390    -0.06600
C1074       C  0.58101930  0.58487269  0.22613802    -0.07300
C1075       C  0.56612499  0.58398059  0.24935910    -0.01900
C1076       C  0.56213685  0.57351154  0.28298735     0.05000
N1077       N  0.54760262  0.57248662  0.30847897     0.67500
H1078       H  0.56862444  0.55521389  0.31706671     0.16400
H1079       H  0.58470837  0.59316090  0.20067389     0.16100
N1080       N  0.60667912  0.57710670  0.21059538     0.75200
O1081       O  0.53037555  0.55784713  0.30766659    -0.38300
O1082       O  0.55307445  0.58361395  0.33645772    -0.38200
O1083       O  0.60209781  0.56746544  0.18072210    -0.38900
O1084       O  0.62389290  0.59153398  0.21443465    -0.39000
C1085       C  0.98225509  0.54971707  0.25037946    -0.11300
C1086       C  0.97645984  0.54974658  0.28726610     0.05700
C1087       C  0.99118949  0.56085440  0.31384043    -0.06600
C1088       C  0.01106043  0.57175221  0.30299904    -0.07300
C1089       C  0.01670234  0.57214677  0.26586803    -0.01900
C1090       C  0.00204892  0.56077978  0.23951306     0.05000
N1091       N  0.00694792  0.56007191  0.20160499     0.67500
H1092       H  0.97132274  0.54127615  0.22946775     0.16400
H1093       H  0.02205917  0.58038188  0.32368913     0.16100
N1094       N  0.98633528  0.56155938  0.35179382     0.75200
O1095       O  0.01151542  0.54748361  0.19144849    -0.38300
O1096       O  0.00268568  0.56894767  0.17749985    -0.38200
O1097       O  0.98955039  0.55171727  0.37546112    -0.38900
O1098       O  0.98333075  0.57511733  0.36259258    -0.39000
C1099       C  0.09866031  0.86994176  0.37005843    -0.11300
C1100       C  0.09782436  0.85338760  0.35346406     0.05700
C1101       C  0.11468591  0.85561329  0.33437914    -0.06600
C1102       C  0.13176318  0.87401622  0.33256468    -0.07300
C1103       C  0.13283860  0.89043631  0.35027919    -0.01900
C1104       C  0.11592952  0.88824387  0.36905805     0.05000
N1105       N  0.11606154  0.90424768  0.38804737     0.67500
H1106       H  0.08596934  0.86862674  0.38500264     0.16400
H1107       H  0.14459211  0.87521518  0.31833802     0.16100
N1108       N  0.11511021  0.83931050  0.31782158     0.75200
O1109       O  0.11008195  0.91440564  0.37143284    -0.38300
O1110       O  0.11752435  0.90520761  0.42290151    -0.38200
O1111       O  0.11417652  0.83744976  0.28303288    -0.38900
O1112       O  0.12088664  0.82966074  0.33677824    -0.39000
C1113       C  0.18317454  0.78671249  0.50715027    -0.11300
C1114       C  0.18316305  0.76981007  0.49461614     0.05700
C1115       C  0.20086829  0.77158065  0.48033144    -0.06600
C1116       C  0.21794150  0.78997145  0.47863062    -0.07300
C1117       C  0.21781821  0.80692362  0.49032094    -0.01900
C1118       C  0.20011041  0.80515132  0.50470241     0.05000
N1119       N  0.19858191  0.82192835  0.51469229     0.67500
H1120       H  0.16966666  0.78580015  0.51752897     0.16400
H1121       H  0.23135154  0.79096830  0.46750126     0.16100
N1122       N  0.20180042  0.75498341  0.46687887     0.75200
O1123       O  0.19257737  0.82949481  0.49090663    -0.38300
O1124       O  0.19842523  0.82595408  0.04868465    -0.38200
O1125       O  0.20120190  0.75197352  0.43242058    -0.38900
O1126       O  0.20767857  0.74620261  0.98847512    -0.39000
C1127       C  0.09016067  0.66943787  0.09636017    -0.11300
C1128       C  0.11020540  0.67951769  0.08607740     0.05700
C1129       C  0.12369340  0.67602567  0.10622358    -0.06600
C1130       C  0.11693656  0.66261537  0.13553307    -0.07300
C1131       C  0.09681744  0.65228484  0.14540701    -0.01900
C1132       C  0.08337574  0.65590766  0.12540161     0.05000
N1133       N  0.06270016  0.64579269  0.13359378     0.67500
H1134       H  0.07948292  0.67174977  0.08129217     0.16400
H1135       H  0.12759001  0.66022123  0.15048733     0.16100
N1136       N  0.14432325  0.68598508  0.09761576     0.75200
O1137       O  0.05563157  0.65399950  0.15359334    -0.38300
O1138       O  0.05116401  0.63098915  0.11455934    -0.38200
O1139       O  0.15610438  0.70053594  0.11695450    -0.38900
O1140       O  0.15110227  0.67771883  0.07703686    -0.39000
C1141       C  0.11933228  0.66207400  0.34080970    -0.11300
C1142       C  0.09906033  0.64979004  0.33364956     0.05700
C1143       C  0.08516585  0.65046669  0.35785015    -0.06600
C1144       C  0.09161324  0.66321577  0.38815933    -0.07300
C1145       C  0.11182723  0.67583906  0.39506762    -0.01900
C1146       C  0.12581383  0.67522403  0.37086058     0.05000
N1147       N  0.14657461  0.68810578  0.37564776     0.67500
H1148       H  0.13021517  0.66186849  0.32243308     0.16400
H1149       H  0.08054764  0.66333213  0.40615048     0.16100
N1150       N  0.06435629  0.63809437  0.35253461     0.75200
O1151       O  0.15689565  0.68192976  0.39124752    -0.38300
O1152       O  0.15504774  0.70388900  0.35765497    -0.38200
O1153       O  0.05523925  0.62262820  0.37129082    -0.38900
O1154       O  0.05466221  0.64475629  0.33615552    -0.39000
C1155       C  0.09261844  0.74779020  0.41078836    -0.11300
C1156       C  0.09290144  0.74536821  0.44931889     0.05700
C1157       C  0.08320701  0.75255475  0.47232332    -0.06600
C1158       C  0.07361655  0.76185001  0.45650406    -0.07300
C1159       C  0.07347802  0.76431601  0.41798008    -0.01900
C1160       C  0.08321913  0.75721924  0.39507516     0.05000
N1161       N  0.08464842  0.76032980  0.35595835     0.67500
H1162       H  0.10006510  0.74259647  0.39243645     0.16400
H1163       H  0.06632465  0.76729910  0.47466926     0.16100
N1164       N  0.08340357  0.75115372  0.51174609     0.75200
O1165       O  0.09889242  0.77578812  0.34299584    -0.38300
O1166       O  0.07421572  0.74625221  0.33443937    -0.38200
O1167       O  0.09562668  0.76584831  0.53026661    -0.38900
O1168       O  0.06857895  0.73758202  0.52789615    -0.39000
C1169       C  0.88452893  0.76091212  0.10137337    -0.11300
C1170       C  0.88697928  0.74909347  0.12745569     0.05700
C1171       C  0.87121672  0.73764679  0.15177998    -0.06600
C1172       C  0.85324139  0.73747914  0.14840980    -0.07300
C1173       C  0.85043277  0.74857839  0.12116424    -0.01900
C1174       C  0.86652852  0.76076937  0.09803334     0.05000
N1175       N  0.86492206  0.77297423  0.07070473     0.67500
H1176       H  0.89644521  0.76993078  0.08266487     0.16400
H1177       H  0.84129674  0.72824775  0.16688888     0.16100
N1178       N  0.87311579  0.72608934  0.18018046     0.75200
O1179       O  0.87002110  0.79043835  0.07892532    -0.38300
O1180       O  0.86302918  0.76793436  0.03706820    -0.38200
O1181       O  0.87819079  0.73315011  0.21235918    -0.38900
O1182       O  0.86572028  0.70790327  0.17532667    -0.39000
C1183       C  0.99583134  0.78843767  0.02827265    -0.11300
C1184       C  0.97670474  0.77237138  0.02322267     0.05700
C1185       C  0.97093930  0.76423981  0.98738699    -0.06600
C1186       C  0.98455918  0.77142520  0.45838524    -0.07300
C1187       C  0.00408625  0.78657313  0.46389815    -0.01900
C1188       C  0.00947427  0.79561007  0.99900855     0.05000
N1189       N  0.02897980  0.81138025  0.00626094     0.67500
H1190       H  0.00048998  0.79507978  0.05535768     0.16400
H1191       H  0.97994640  0.76442969  0.43156397     0.16100
N1192       N  0.95181950  0.74779579  0.98035296     0.75200
O1193       O  0.03194072  0.82864656  0.00737386    -0.38300
O1194       O  0.04167840  0.80777340  0.52029193    -0.38200
O1195       O  0.93862617  0.75047604  0.96586073    -0.38900
O1196       O  0.94969775  0.73093962  0.48043292    -0.39000
C1197       C  0.98986637  0.75457944  0.22492521    -0.11300
C1198       C  0.97945495  0.76441392  0.21651449     0.05700
C1199       C  0.98263600  0.78049683  0.23889455    -0.06600
C1200       C  0.99596741  0.78633430  0.26867373    -0.07300
C1201       C  0.00644840  0.77653917  0.27692215    -0.01900
C1202       C  0.00321795  0.76044575  0.25458126     0.05000
N1203       N  0.01363295  0.75005698  0.26085401     0.67500
H1204       H  0.98778624  0.74227603  0.20828503     0.16400
H1205       H  0.99809594  0.79863824  0.28536849     0.16100
N1206       N  0.97267231  0.79126125  0.23183398     0.75200
O1207       O  0.00555396  0.73457550  0.27977443    -0.38300
O1208       O  0.02821377  0.75354294  0.24055498    -0.38200
O1209       O  0.95903993  0.78934325  0.25332947    -0.38900
O1210       O  0.98042316  0.80567289  0.21011579    -0.39000
C1211       C  0.77076234  0.55375094  0.04633885    -0.11300
C1212       C  0.77020028  0.56983194  0.03097663     0.05700
C1213       C  0.78787599  0.58547458  0.01655544    -0.06600
C1214       C  0.80564028  0.58519769  0.01967494    -0.07300
C1215       C  0.80635016  0.56960631  0.03692636    -0.01900
C1216       C  0.78853516  0.55348606  0.04937908     0.05000
N1217       N  0.78813068  0.53669209  0.06516689     0.67500
H1218       H  0.75738356  0.54142920  0.05706553     0.16400
H1219       H  0.81909566  0.59765464  0.00952904     0.16100
N1220       N  0.78830152  0.60206556  0.99968562     0.75200
O1221       O  0.78819886  0.53513122  0.09993360    -0.38300
O1222       O  0.78327249  0.52176802  0.54531298    -0.38200
O1223       O  0.79518870  0.61791743  0.01758272    -0.38900
O1224       O  0.78616375  0.60217835  0.96505936    -0.39000
C1225       C  0.86639802  0.54210692  0.17897738    -0.11300
C1226       C  0.88045020  0.55230896  0.15123984     0.05700
C1227       C  0.89974719  0.55513107  0.15528009    -0.06600
C1228       C  0.90471835  0.54844021  0.18699276    -0.07300
C1229       C  0.89083328  0.53857228  0.21506727    -0.01900
C1230       C  0.87135331  0.53517338  0.21061215     0.05000
N1231       N  0.85657644  0.52532970  0.23828135     0.67500
H1232       H  0.85149420  0.53974349  0.17649757     0.16400
H1233       H  0.91964832  0.55085313  0.18935574     0.16100
N1234       N  0.91450709  0.56452309  0.12735620     0.75200
O1235       O  0.85393335  0.53528755  0.26273849    -0.38300
O1236       O  0.84331176  0.50779915  0.23285193    -0.38200
O1237       O  0.92863858  0.58163608  0.13295539    -0.38900
O1238       O  0.91579037  0.55438361  0.10150318    -0.39000
C1239       C  0.90153800  0.56407927  0.45383129    -0.11300
C1240       C  0.88157566  0.55384523  0.46456955     0.05700
C1241       C  0.86845196  0.53646731  0.44551147    -0.06600
C1242       C  0.87536367  0.52998706  0.41597382    -0.07300
C1243       C  0.89528659  0.54034078  0.40499877    -0.01900
C1244       C  0.90850960  0.55745888  0.42465620     0.05000
N1245       N  0.92910431  0.56825748  0.41580693     0.67500
H1246       H  0.91195013  0.57724241  0.46842793     0.16400
H1247       H  0.86495296  0.51681292  0.40141055     0.16100
N1248       N  0.84798537  0.52535507  0.45509513     0.75200
O1249       O  0.93580429  0.58409401  0.39816703    -0.38300
O1250       O  0.94096774  0.56423738  0.43207803    -0.38200
O1251       O  0.83549010  0.52750306  0.43650192    -0.38900
O1252       O  0.84213631  0.51040123  0.47516569    -0.39000
C1253       C  0.90224145  0.66778751  0.12442611    -0.11300
C1254       C  0.91602444  0.68088626  0.09885993     0.05700
C1255       C  0.91994333  0.67323059  0.06649210    -0.06600
C1256       C  0.91003842  0.65297923  0.06033125    -0.07300
C1257       C  0.89595018  0.63991155  0.08555716    -0.01900
C1258       C  0.89212988  0.64757724  0.11801539     0.05000
N1259       N  0.87750210  0.63523206  0.14420108     0.67500
H1260       H  0.89879869  0.67325328  0.14927706     0.16400
H1261       H  0.91327610  0.64751010  0.03525428     0.16100
N1262       N  0.93364426  0.68570749  0.03916394     0.75200
O1263       O  0.88287451  0.63082300  0.17388281    -0.38300
O1264       O  0.86021772  0.63269174  0.14175947    -0.38200
O1265       O  0.95091915  0.68812789  0.03861787    -0.38900
O1266       O  0.92722291  0.69030254  0.01109079    -0.39000
C1267       C  0.77416413  0.20070609  0.05226417    -0.11300
C1268       C  0.77121253  0.18604502  0.02659692     0.05700
C1269       C  0.78590512  0.19019510  0.99955636    -0.06600
C1270       C  0.80341343  0.20821760  0.99997302    -0.07300
C1271       C  0.80688235  0.22244714  0.02695786    -0.01900
C1272       C  0.79174569  0.21875081  0.05274577     0.05000
N1273       N  0.79404074  0.23284614  0.08020795     0.67500
H1274       H  0.76302199  0.19797866  0.07300696     0.16400
H1275       H  0.81464687  0.21077447  0.97954285     0.16100
N1276       N  0.78313115  0.17605119  0.47214850     0.75200
O1277       O  0.78707535  0.24400998  0.07411383    -0.38300
O1278       O  0.79848922  0.23092345  0.11292921    -0.38200
O1279       O  0.77801664  0.17775553  0.43984078    -0.38900
O1280       O  0.79128426  0.16555746  0.97707445    -0.39000
C1281       C  0.89980427  0.12023614  0.12936499    -0.11300
C1282       C  0.90021403  0.13648124  0.14649627     0.05700
C1283       C  0.88291320  0.13386396  0.16444588    -0.06600
C1284       C  0.86569971  0.11557367  0.16374912    -0.07300
C1285       C  0.86498594  0.09955506  0.14510056    -0.01900
C1286       C  0.88245628  0.10195874  0.12828901     0.05000
N1287       N  0.88275765  0.08632047  0.10870272     0.67500
H1288       H  0.91286298  0.12183900  0.11541464     0.16400
H1289       H  0.85254906  0.11416509  0.17698205     0.16100
N1290       N  0.88216803  0.14972262  0.18224985     0.75200
O1291       O  0.88028621  0.08503307  0.07404602    -0.38300
O1292       O  0.88994478  0.07691455  0.12420954    -0.38200
O1293       O  0.87410645  0.15805520  0.16575981    -0.38900
O1294       O  0.88521588  0.15222050  0.21667810    -0.39000
C1295       C  0.92287900  0.23227950  0.05861631    -0.11300
C1296       C  0.92152854  0.22684919  0.09598196     0.05700
C1297       C  0.90940482  0.23047108  0.12001143    -0.06600
C1298       C  0.89916857  0.23954658  0.10646717    -0.07300
C1299       C  0.90048726  0.24495077  0.06905110    -0.01900
C1300       C  0.91252789  0.24119108  0.04498950     0.05000
N1301       N  0.91465943  0.24645222  0.00673510     0.67500
H1302       H  0.93206375  0.22961583  0.03962778     0.16400
H1303       H  0.88984437  0.24204940  0.12537257     0.16100
N1304       N  0.90662548  0.22435802  0.15781695     0.75200
O1305       O  0.92939964  0.26394577  0.49866667    -0.38300
O1306       O  0.90675293  0.23452126  0.48266464    -0.38200
O1307       O  0.91489903  0.23694550  0.18312615    -0.38900
O1308       O  0.89290439  0.20743954  0.16604781    -0.39000
C1309       C  0.21520373  0.40990097  0.01438295    -0.11300
C1310       C  0.23055085  0.42467025  0.49354689     0.05700
C1311       C  0.22722796  0.43894798  0.47667362    -0.06600
C1312       C  0.20839654  0.43709942  0.47807647    -0.07300
C1313       C  0.19266897  0.42141066  0.49661660    -0.01900
C1314       C  0.19648390  0.40822623  0.01625755     0.05000
N1315       N  0.18141255  0.39248172  0.03712932     0.67500
H1316       H  0.21745984  0.39903433  0.02831711     0.16400
H1317       H  0.20600127  0.44775996  0.46367762     0.16100
N1318       N  0.24258460  0.45521220  0.45732684     0.75200
O1319       O  0.17227520  0.37558584  0.02297961    -0.38300
O1320       O  0.18037361  0.39449981  0.07160874    -0.38200
O1321       O  0.24286838  0.45499048  0.42238400    -0.38900
O1322       O  0.25271013  0.47121094  0.47430271    -0.39000
C1323       C  0.12400757  0.25865677  0.33705098    -0.11300
C1324       C  0.10983161  0.24500318  0.36147406     0.05700
C1325       C  0.11425414  0.23199820  0.38045305    -0.06600
C1326       C  0.13293113  0.23371465  0.37657756    -0.07300
C1327       C  0.14754371  0.24818811  0.35396506    -0.01900
C1328       C  0.14264252  0.26028393  0.33298685     0.05000
N1329       N  0.15636962  0.27445306  0.30769111     0.67500
H1330       H  0.12082526  0.26846538  0.32145432     0.16400
H1331       H  0.13617758  0.22404964  0.39250752     0.16100
N1332       N  0.10030876  0.21737302  0.40480412     0.75200
O1333       O  0.15599033  0.26978504  0.27410005    -0.38300
O1334       O  0.16533631  0.29230466  0.31674255    -0.38200
O1335       O  0.09128875  0.19973041  0.39437635    -0.38900
O1336       O  0.10037822  0.22134777  0.43871773    -0.39000
C1337       C  0.99576952  0.21536760  0.46666668    -0.11300
C1338       C  0.01507267  0.21853931  0.47093824     0.05700
C1339       C  0.02052295  0.21379171  0.00514612    -0.06600
C1340       C  0.00707650  0.20723303  0.03468220    -0.07300
C1341       C  0.98801550  0.20471290  0.03063641    -0.01900
C1342       C  0.98220527  0.20820551  0.99577698     0.05000
N1343       N  0.96328315  0.20679333  0.49047121     0.67500
H1344       H  0.99122749  0.21875632  0.44072737     0.16400
H1345       H  0.01169384  0.20440037  0.06108576     0.16100
N1346       N  0.03979139  0.21629803  0.01098693     0.75200
O1347       O  0.96133998  0.22165252  0.49483605    -0.38300
O1348       O  0.95006829  0.19151644  0.97293722    -0.38200
O1349       O  0.05241461  0.23062370  0.52898239    -0.38900
O1350       O  0.04264956  0.20208971  0.00516563    -0.39000
C1351       C  0.01487990  0.24217796  0.26430015    -0.11300
C1352       C  0.01921025  0.22894434  0.28230093     0.05700
C1353       C  0.01062675  0.20961046  0.26843403    -0.06600
C1354       C  0.99764943  0.20384038  0.23818541    -0.07300
C1355       C  0.99294216  0.21693017  0.22075253    -0.01900
C1356       C  0.00201480  0.23644064  0.23383291     0.05000
N1357       N  0.99842719  0.25069707  0.21664920     0.67500
H1358       H  0.02141482  0.25715363  0.27404306     0.16400
H1359       H  0.99112716  0.18886188  0.22845994     0.16100
N1360       N  0.01471089  0.19550055  0.28475261     0.75200
O1361       O  0.98513926  0.25378359  0.22943713    -0.38300
O1362       O  0.01104192  0.26283028  0.19443629    -0.38200
O1363       O  0.00205126  0.18261861  0.30585963    -0.38900
O1364       O  0.02843165  0.19318468  0.27162755    -0.39000
C1365       C  0.09348794  0.32496855  0.39327825    -0.11300
C1366       C  0.08299634  0.31015821  0.41932596     0.05700
C1367       C  0.08236571  0.31555949  0.45646570    -0.06600
C1368       C  0.09213383  0.33534142  0.46668595    -0.07300
C1369       C  0.10288294  0.35016018  0.44078327    -0.01900
C1370       C  0.10352890  0.34474725  0.40360279     0.05000
N1371       N  0.11469004  0.35899612  0.37604103     0.67500
H1372       H  0.09435831  0.32118762  0.36470524     0.16400
H1373       H  0.09132582  0.33906351  0.49532015     0.16100
N1374       N  0.07167335  0.30125047  0.48420859     0.75200
O1375       O  0.13219725  0.36296030  0.36931732    -0.38300
O1376       O  0.10585761  0.36415393  0.35332712    -0.38200
O1377       O  0.08093320  0.29601960  0.50572520    -0.38900
O1378       O  0.05449201  0.29766062  0.49286325    -0.39000
C1379       C  0.90186835  0.43175958  0.33358601    -0.11300
C1380       C  0.89771917  0.42258120  0.29873243     0.05700
C1381       C  0.89191518  0.43052995  0.26956697    -0.06600
C1382       C  0.89200694  0.44817267  0.27496513    -0.07300
C1383       C  0.89794361  0.45828790  0.30890922    -0.01900
C1384       C  0.90201745  0.44940573  0.33896077     0.05000
N1385       N  0.90705054  0.45835052  0.37477620     0.67500
H1386       H  0.90581862  0.42560745  0.35669288     0.16400
H1387       H  0.88852114  0.45453512  0.25158000     0.16100
N1388       N  0.88743237  0.42183494  0.23350827     0.75200
O1389       O  0.89369530  0.45321270  0.39898603    -0.38300
O1390       O  0.92496124  0.46743708  0.38468432    -0.38200
O1391       O  0.86961616  0.41208736  0.22322969    -0.38900
O1392       O  0.90101277  0.42748544  0.20964170    -0.39000
C1393       C  0.90329681  0.34461547  0.15574292    -0.11300
C1394       C  0.89019472  0.33896530  0.18585630     0.05700
C1395       C  0.87172790  0.32162208  0.18310594    -0.06600
C1396       C  0.86705740  0.31008777  0.15102664    -0.07300
C1397       C  0.88057968  0.31534983  0.12157361    -0.01900
C1398       C  0.89872850  0.33305756  0.12391589     0.05000
N1399       N  0.91275729  0.33961400  0.09434535     0.67500
H1400       H  0.91741784  0.35806987  0.15697022     0.16400
H1401       H  0.85306973  0.29649465  0.14990065     0.16100
N1402       N  0.85809074  0.31482614  0.21332388     0.75200
O1403       O  0.91330408  0.35209562  0.07185215    -0.38300
O1404       O  0.92722675  0.33663348  0.09600350    -0.38200
O1405       O  0.84292803  0.31669702  0.21203931    -0.38900
O1406       O  0.85888239  0.30337443  0.23672850    -0.39000
C1407       C  0.89893199  0.32084766  0.37588497    -0.11300
C1408       C  0.89417377  0.33587374  0.37628103     0.05700
C1409       C  0.88300761  0.33692758  0.40616197    -0.06600
C1410       C  0.87694803  0.32320504  0.43466787    -0.07300
C1411       C  0.88183284  0.30830977  0.43448327    -0.01900
C1412       C  0.89279294  0.30705320  0.40446248     0.05000
N1413       N  0.89709364  0.29144511  0.40168003     0.67500
H1414       H  0.90717890  0.31955178  0.35289762     0.16400
H1415       H  0.86876440  0.32458570  0.45768432     0.16100
N1416       N  0.87834762  0.35228302  0.40896637     0.75200
O1417       O  0.88510228  0.27590472  0.38498260    -0.38300
O1418       O  0.91485802  0.29519571  0.90850214    -0.38200
O1419       O  0.86119382  0.34884296  0.40050338    -0.38900
O1420       O  0.88945347  0.36734345  0.42780150    -0.39000
C1421       C  0.08659123  0.53313476  0.19388946    -0.11300
C1422       C  0.09348221  0.52784321  0.22529108     0.05700
C1423       C  0.10197224  0.54156568  0.25451546    -0.06600
C1424       C  0.10173154  0.55923870  0.25323612    -0.07300
C1425       C  0.09342274  0.56383300  0.22303420    -0.01900
C1426       C  0.08669022  0.55094301  0.19231239     0.05000
N1427       N  0.07969034  0.55551891  0.15936478     0.67500
H1428       H  0.08062773  0.52319435  0.17052904     0.16400
H1429       H  0.10740350  0.56905426  0.27682175     0.16100
N1430       N  0.11036213  0.53764084  0.28626244     0.75200
O1431       O  0.09175354  0.56461881  0.13364667    -0.38300
O1432       O  0.06136071  0.54687681  0.15271763    -0.38200
O1433       O  0.12886429  0.54474250  0.28808102    -0.38900
O1434       O  0.10006644  0.53089466  0.31515150    -0.39000
C1435       C  0.12366625  0.45562252  0.33026830    -0.11300
C1436       C  0.10346320  0.44949638  0.32689775     0.05700
C1437       C  0.09029551  0.43724218  0.35441568    -0.06600
C1438       C  0.09738272  0.43124056  0.38410553    -0.07300
C1439       C  0.11749641  0.43695865  0.38727770    -0.01900
C1440       C  0.13076461  0.44937571  0.35989376     0.05000
N1441       N  0.15135729  0.45547963  0.36106284     0.67500
H1442       H  0.13399507  0.46496498  0.30933223     0.16400
H1443       H  0.08685830  0.42182720  0.40472154     0.16100
N1444       N  0.06966957  0.43098175  0.35324452     0.75200
O1445       O  0.15771162  0.44626713  0.34211363    -0.38300
O1446       O  0.16342773  0.47240901  0.37281753    -0.38200
O1447       O  0.05766893  0.41388695  0.34213814    -0.38900
O1448       O  0.06328496  0.44034591  0.37162252    -0.39000
C1449       C  0.09024560  0.42688497  0.12602168    -0.11300
C1450       C  0.10189592  0.44656264  0.13693727     0.05700
C1451       C  0.11959322  0.45849292  0.11732384    -0.06600
C1452       C  0.12504641  0.45075144  0.08744814    -0.07300
C1453       C  0.11338495  0.43109337  0.07647048    -0.01900
C1454       C  0.09585679  0.41906049  0.09648087     0.05000
N1455       N  0.08363114  0.39878403  0.08772985     0.67500
H1456       H  0.07676683  0.41734849  0.14078811     0.16400
H1457       H  0.13854707  0.46030221  0.07275111     0.16100
N1458       N  0.13222281  0.47858254  0.12692762     0.75200
O1459       O  0.08673421  0.38635193  0.10376475    -0.38300
O1460       O  0.06743368  0.39313322  0.07107625    -0.38200
O1461       O  0.14775448  0.48339971  0.14533957    -0.38900
O1462       O  0.13048281  0.49158751  0.10982376    -0.39000
C1463       C  0.00462290  0.43011870  0.22354963    -0.11300
C1464       C  0.01771404  0.43590811  0.25371835     0.05700
C1465       C  0.00976472  0.43019159  0.28975529    -0.06600
C1466       C  0.98925369  0.41877220  0.29473096    -0.07300
C1467       C  0.97619955  0.41291154  0.26451574    -0.01900
C1468       C  0.98412669  0.41881124  0.22855166     0.05000
N1469       N  0.97170746  0.41293996  0.19651032     0.67500
H1470       H  0.01029964  0.43422509  0.19567749     0.16400
H1471       H  0.98354785  0.41444248  0.32253266     0.16100
N1472       N  0.02221185  0.43500602  0.32159735     0.75200
O1473       O  0.96790610  0.42504251  0.18107583    -0.38300
O1474       O  0.96834177  0.39760972  0.17931132    -0.38200
O1475       O  0.02594307  0.45000105  0.34037999    -0.38900
O1476       O  0.02484092  0.42191617  0.33602061    -0.39000
O1477       O  0.07825360  0.44387456  0.68275334    -0.56800
C1478       C  0.03941172  0.44715200  0.74616467     0.75800
O1479       O  0.10786354  0.47046207  0.77501331    -0.58000
C1480       C  0.09528061  0.45396179  0.66875728     0.75800
C1481       C  0.09048790  0.50769670  0.72730348     0.78200
Cd1482     Cd  0.08160858  0.46730151  0.73210652     1.37500
O1483       O  0.04641261  0.44829078  0.71394277    -0.56800
O1484       O  0.08096284  0.49509256  0.70249832    -0.55600
C1485       C  0.09642287  0.45570973  0.79429863     0.78100
O1486       O  0.09646071  0.50176896  0.75421683    -0.58000
O1487       O  0.05194365  0.45592447  0.77159512    -0.56500
O1488       O  0.10611222  0.47044530  0.68380846    -0.56400
O1489       O  0.07856517  0.44640578  0.78413844    -0.55600
O1490       O  0.91452932  0.35233952  0.82314841    -0.56800
C1491       C  0.95463453  0.40074263  0.77089849     0.75800
O1492       O  0.88517611  0.35092109  0.74427402    -0.58000
C1493       C  0.90070678  0.34997920  0.84477073     0.75800
C1494       C  0.90157775  0.40618362  0.79293746     0.78200
Cd1495     Cd  0.91247482  0.37656360  0.78289185     1.37500
O1496       O  0.94778290  0.39182423  0.80122103    -0.56800
O1497       O  0.91195856  0.40312339  0.81591204    -0.55600
C1498       C  0.89682465  0.35125756  0.71942277     0.78100
O1499       O  0.89545859  0.39493087  0.76501962    -0.58000
O1500       O  0.94198141  0.39860338  0.74672968    -0.56500
O1501       O  0.89249234  0.35997977  0.83776870    -0.56400
O1502       O  0.91500256  0.36299139  0.72461182    -0.55600
O1503       O  0.03858541  0.25269345  0.82921869    -0.56800
C1504       C  0.07354123  0.28947739  0.90715263     0.75800
O1505       O  0.04618195  0.22928913  0.93913804    -0.58000
C1506       C  0.03221370  0.23573561  0.81579282     0.75800
C1507       C  0.09133273  0.24565663  0.86783423     0.78200
Cd1508     Cd  0.05676533  0.24927886  0.88186161     1.37500
O1509       O  0.06855746  0.27551827  0.92957763    -0.56800
O1510       O  0.08874323  0.25879903  0.85340074    -0.55600
C1511       C  0.02939313  0.22816924  0.94038762     0.78100
O1512       O  0.07749217  0.23358458  0.88838752    -0.58000
O1513       O  0.07043282  0.28478441  0.87325116    -0.56500
O1514       O  0.03738548  0.22496913  0.83278534    -0.56400
O1515       O  0.02544109  0.23633892  0.91424252    -0.55600
O1516       O  0.16886987  0.42921652  0.97129124    -0.56800
C1517       C  0.12357874  0.42914184  0.91872701     0.75800
O1518       O  0.11235337  0.37547543  0.98692752    -0.58000
C1519       C  0.17239978  0.41856452  0.99252174     0.75800
C1520       C  0.11985119  0.42390095  0.54391434     0.78200
Cd1521     Cd  0.13271014  0.41114265  0.97904816     1.37500
O1522       O  0.11088380  0.41763447  0.94171739    -0.56800
O1523       O  0.13531443  0.43515461  0.52588261    -0.55600
C1524       C  0.11310527  0.37094968  0.95349491     0.78100
O1525       O  0.11029816  0.40644296  0.53224225    -0.58000
O1526       O  0.14123625  0.43305301  0.92414568    -0.56500
O1527       O  0.15757950  0.40487409  0.50873505    -0.56400
O1528       O  0.12299331  0.38509231  0.93185472    -0.55600
O1529       O  0.97305666  0.22038238  0.67305327    -0.56800
C1530       C  0.93220820  0.21681040  0.60847036     0.75800
O1531       O  0.95656915  0.19166100  0.56158982    -0.58000
C1532       C  0.97861378  0.20976463  0.68953794     0.75800
C1533       C  0.91812206  0.15604504  0.64209504     0.78200
Cd1534     Cd  0.95106919  0.19480951  0.62823072     1.37500
O1535       O  0.93407881  0.21361826  0.64217439    -0.56800
O1536       O  0.91905887  0.17129637  0.65551718    -0.55600
C1537       C  0.97523262  0.20019059  0.56377776     0.78100
O1538       O  0.93310441  0.15858568  0.62383135    -0.58000
O1539       O  0.93998801  0.21075104  0.58504089    -0.56500
O1540       O  0.97114794  0.19232146  0.67785985    -0.56400
O1541       O  0.98254087  0.20511194  0.59592888    -0.55600
O1542       O  0.88566451  0.28666662  0.97589497    -0.56800
C1543       C  0.88881585  0.25409093  0.55654040     0.75800
O1544       O  0.85823720  0.28754079  0.58485432    -0.58000
C1545       C  0.87647450  0.29548402  0.96687183     0.75800
C1546       C  0.82644681  0.23988377  0.52901383     0.78200
Cd1547     Cd  0.86639264  0.27236402  0.53371478     1.37500
O1548       O  0.88739893  0.25743318  0.52278468    -0.56800
O1549       O  0.83981578  0.24237967  0.50617031    -0.55600
C1550       C  0.87568934  0.30138895  0.59028646     0.78100
O1551       O  0.83138934  0.25289592  0.55369386    -0.58000
O1552       O  0.87977504  0.25910342  0.57923381    -0.56500
O1553       O  0.86230263  0.29299976  0.48826441    -0.56400
O1554       O  0.88883044  0.30218698  0.56853053    -0.55600
O1555       O  0.88765355  0.61225845  0.54600722    -0.56800
C1556       C  0.87520838  0.56163573  0.99582801     0.75800
O1557       O  0.85740412  0.55708976  0.61461581    -0.58000
C1558       C  0.88542428  0.61865625  0.57681967     0.75800
C1559       C  0.82592639  0.57123377  0.54331687     0.78200
Cd1560     Cd  0.86487829  0.57741381  0.55853545     1.37500
O1561       O  0.88612394  0.57890577  0.00759133    -0.56800
O1562       O  0.84118198  0.58393580  0.52656701    -0.55600
C1563       C  0.87495982  0.56052523  0.61942322     0.78100
O1564       O  0.82857896  0.56078188  0.56664161    -0.58000
O1565       O  0.85902875  0.55161147  0.51265149    -0.56500
O1566       O  0.87371429  0.60587502  0.59938589    -0.56400
O1567       O  0.88754173  0.57159157  0.59590756    -0.55600
O1568       O  0.95581330  0.76545585  0.67438373    -0.56800
C1569       C  0.92513484  0.70225288  0.60608543     0.75800
O1570       O  0.92061950  0.76014878  0.60904231    -0.58000
C1571       C  0.96573397  0.75749117  0.68427649     0.75800
C1572       C  0.96390894  0.76345882  0.55612875     0.78200
Cd1573     Cd  0.94004152  0.74354009  0.61990407     1.37500
O1574       O  0.93527441  0.71504790  0.58219552    -0.56800
O1575       O  0.97088073  0.76713336  0.58869102    -0.55600
C1576       C  0.90543662  0.74796068  0.62669927     0.78100
O1577       O  0.94562844  0.75122852  0.55330313    -0.58000
O1578       O  0.92263065  0.70868435  0.63658337    -0.56500
O1579       O  0.96344278  0.74314918  0.66470985    -0.56400
O1580       O  0.90664226  0.73427663  0.64231133    -0.55600
O1581       O  0.10323201  0.73068220  0.99726007    -0.56800
C1582       C  0.11612970  0.69286007  0.55367208     0.75800
O1583       O  0.13510963  0.70226617  0.93468981    -0.58000
C1584       C  0.10390844  0.73576314  0.96377607     0.75800
C1585       C  0.16422554  0.75109941  0.99422039     0.78200
Cd1586     Cd  0.12587628  0.71683743  0.98746079     1.37500
O1587       O  0.10443140  0.69778061  0.53939342    -0.56800
O1588       O  0.14910266  0.74940224  0.51088338    -0.55600
C1589       C  0.11743003  0.68957064  0.92699538     0.78100
O1590       O  0.16177887  0.73635777  0.97580464    -0.58000
O1591       O  0.13277723  0.69957350  0.53802278    -0.56500
O1592       O  0.11453890  0.73206393  0.94248020    -0.56400
O1593       O  0.10429146  0.68933705  0.94795104    -0.55600
O1594       O  0.02796972  0.77364534  0.82179648    -0.56800
C1595       C  0.06366758  0.77472747  0.90271198     0.75800
O1596       O  0.06450991  0.83241086  0.87435037    -0.58000
C1597       C  0.02032762  0.78332794  0.80904957     0.75800
C1598       C  0.01846830  0.79087358  0.93335446     0.78200
Cd1599     Cd  0.04568596  0.79635217  0.87404658     1.37500
O1600       O  0.05940402  0.78516767  0.92315850    -0.56800
O1601       O  0.01467882  0.77864656  0.90744568    -0.55600
C1602       C  0.07975066  0.83405418  0.85842365     0.78100
O1603       O  0.03511000  0.80641832  0.93177531    -0.58000
O1604       O  0.05909481  0.77383253  0.86882086    -0.56500
O1605       O  0.02493099  0.79919996  0.82571127    -0.56400
O1606       O  0.07876520  0.81824881  0.84814938    -0.55600
O1607       O  0.91892108  0.54224236  0.85987090    -0.56800
C1608       C  0.95499775  0.53875364  0.79605281     0.75800
O1609       O  0.89805469  0.48633613  0.78315390    -0.58000
C1610       C  0.90150970  0.53318474  0.87254725     0.75800
C1611       C  0.89748841  0.53216010  0.74789380     0.78200
Cd1612     Cd  0.91282626  0.51953728  0.80832169     1.37500
O1613       O  0.94240977  0.52802045  0.77200069    -0.56800
O1614       O  0.88573491  0.51903790  0.76986555    -0.55600
C1615       C  0.90181638  0.47871353  0.81042115     0.78100
O1616       O  0.91568992  0.53940952  0.75487811    -0.58000
O1617       O  0.94808834  0.53997484  0.82709420    -0.56500
O1618       O  0.88948656  0.51770315  0.85554235    -0.56400
O1619       O  0.91005250  0.48987152  0.83785369    -0.55600
O1620       O  0.10345978  0.63065694  0.78606058    -0.56800
C1621       C  0.09003412  0.58076902  0.72615771     0.75800
O1622       O  0.05133228  0.59089610  0.77956073    -0.58000
C1623       C  0.09266148  0.63667034  0.80077756     0.75800
C1624       C  0.09045086  0.63795832  0.67638970     0.78200
Cd1625     Cd  0.07886847  0.61052598  0.73753867     1.37500
O1626       O  0.09607075  0.59223003  0.75378539    -0.56800
O1627       O  0.10271233  0.63485689  0.69379233    -0.55600
C1628       C  0.03774838  0.58483685  0.75548616     0.78100
O1629       O  0.07267304  0.62818767  0.68706729    -0.58000
O1630       O  0.07986668  0.58388527  0.70275953    -0.56500
O1631       O  0.07600014  0.63090893  0.78574571    -0.56400
O1632       O  0.04316884  0.59063215  0.72262208    -0.55600
O1633       O  0.63348212  0.54889587  0.83951319    -0.56800
C1634       C  0.59571378  0.55150984  0.77635835     0.75800
O1635       O  0.64256528  0.53388282  0.76395258    -0.58000
C1636       C  0.63669776  0.53694027  0.85728329     0.75800
C1637       C  0.57668173  0.48631826  0.79973855     0.78200
Cd1638     Cd  0.61090784  0.52527426  0.79260907     1.37500
O1639       O  0.59216955  0.54228304  0.80655590    -0.56800
O1640       O  0.57914038  0.50079267  0.81900003    -0.55600
C1641       C  0.63606826  0.52855235  0.73137219     0.78100
O1642       O  0.59056981  0.48956526  0.77759792    -0.58000
O1643       O  0.60677602  0.54904017  0.75400668    -0.56500
O1644       O  0.62761086  0.51944086  0.84561484    -0.56400
O1645       O  0.61753780  0.52087384  0.72724337    -0.55600
O1646       O  0.55505503  0.63152138  0.65879386    -0.56800
C1647       C  0.55510466  0.59386665  0.73711538     0.75800
O1648       O  0.52554430  0.63012764  0.76155168    -0.58000
C1649       C  0.54450742  0.63873589  0.64852821     0.75800
C1650       C  0.49506863  0.57977420  0.70188819     0.78200
Cd1651     Cd  0.53405459  0.61336732  0.71291617     1.37500
O1652       O  0.55786461  0.60178338  0.70550599    -0.56800
O1653       O  0.50976663  0.58210833  0.68296523    -0.55600
C1654       C  0.54310110  0.64061997  0.77315086     0.78100
O1655       O  0.49838218  0.59326453  0.72481700    -0.58000
O1656       O  0.54241501  0.59487300  0.75748426    -0.56500
O1657       O  0.52903670  0.63373127  0.66736294    -0.56400
O1658       O  0.55627341  0.63874571  0.75622365    -0.55600
O1659       O  0.73650512  0.55728191  0.55020837    -0.56800
C1660       C  0.69103719  0.55362780  0.60925634     0.75800
O1661       O  0.72330638  0.60735512  0.53645724    -0.58000
C1662       C  0.75153503  0.57047057  0.53365305     0.75800
C1663       C  0.69087327  0.56003010  0.98284403     0.78200
Cd1664     Cd  0.71663907  0.57364276  0.54721152     1.37500
O1665       O  0.70963351  0.56304012  0.61283945    -0.56800
O1666       O  0.69676031  0.54926301  0.49786181    -0.55600
C1667       C  0.73097315  0.61405801  0.56785893     0.78100
O1668       O  0.69740906  0.57688424  0.99695641    -0.58000
O1669       O  0.68456340  0.55278477  0.57683350    -0.56500
O1670       O  0.74990883  0.58456887  0.52119829    -0.74400
O1671       O  0.73170714  0.60197805  0.58979804    -0.55600
O1672       O  0.76474450  0.73876770  0.65014558    -0.56800
C1673       C  0.76574805  0.69698332  0.59862544     0.75800
O1674       O  0.78744295  0.76522367  0.57717034    -0.58000
C1675       C  0.77683873  0.75318837  0.66959758     0.75800
C1676       C  0.83040688  0.74624638  0.61663533     0.78200
Cd1677     Cd  0.79019409  0.73897533  0.60851351     1.37500
O1678       O  0.76526254  0.70885111  0.57576668    -0.56800
O1679       O  0.81662500  0.73590076  0.63888071    -0.55600
C1680       C  0.78651980  0.75859276  0.54480916     0.78100
O1681       O  0.82579907  0.75382134  0.59040056    -0.58000
O1682       O  0.77672788  0.70458820  0.62662238    -0.56500
O1683       O  0.79488209  0.76063795  0.66087217    -0.56400
O1684       O  0.78828970  0.74349966  0.54222457    -0.55600
O1685       O  0.76558355  0.79806003  0.81459973    -0.56800
C1686       C  0.69974077  0.77256881  0.88640525     0.75800
O1687       O  0.75115097  0.77257907  0.89262880    -0.58000
C1688       C  0.75382628  0.78322471  0.79570311     0.75800
C1689       C  0.74771673  0.83364964  0.85682047     0.78200
Cd1690     Cd  0.74073948  0.79393317  0.86220743     1.37500
O1691       O  0.71398895  0.77838645  0.90894942    -0.56800
O1692       O  0.73488584  0.81995994  0.83699847    -0.55600
C1693       C  0.76093312  0.78455762  0.91819365     0.78100
O1694       O  0.75790613  0.82911443  0.87751199    -0.58000
O1695       O  0.70444810  0.77610089  0.85260366    -0.56500
O1696       O  0.73612764  0.77400259  0.80701952    -0.56400
O1697       O  0.76165060  0.80097525  0.91728078    -0.55600
O1698       O  0.61306000  0.73042612  0.96702191    -0.56800
C1699       C  0.56525766  0.69388005  0.52702357     0.75800
O1700       O  0.56080575  0.73841414  0.95546183    -0.58000
C1701       C  0.61783025  0.73727744  0.93456864     0.75800
C1702       C  0.56107147  0.69139113  0.90073974     0.78200
Cd1703     Cd  0.57739784  0.71845028  0.96132791     1.37500
O1704       O  0.58274557  0.70262377  0.51465464    -0.56800
O1705       O  0.57373849  0.69194825  0.92325168    -0.55600
C1706       C  0.57373762  0.75262251  0.97435585     0.78100
O1707       O  0.55425936  0.70272399  0.90758445    -0.58000
O1708       O  0.55321338  0.69710263  0.00985639    -0.56500
O1709       O  0.60384670  0.73580124  0.91446117    -0.56400
O1710       O  0.58702688  0.75037228  0.48822382    -0.55600
O1711       O  0.47043514  0.36570606  0.74672203    -0.56800
C1712       C  0.50134068  0.41393418  0.80564243     0.75800
O1713       O  0.44741015  0.39366681  0.75509263    -0.58000
C1714       C  0.45292469  0.35199200  0.74091361     0.75800
C1715       C  0.45231291  0.35442686  0.86214563     0.78200
Cd1716     Cd  0.46203647  0.38019313  0.79892105     1.37500
O1717       O  0.49697080  0.40096381  0.78095487    -0.56800
O1718       O  0.46815934  0.36002974  0.84414724    -0.55600
C1719       C  0.44021766  0.39980986  0.77963639     0.78100
O1720       O  0.44158700  0.36140787  0.85170896    -0.58000
O1721       O  0.48771320  0.41083480  0.82833135    -0.56500
O1722       O  0.43969440  0.35150287  0.76196914    -0.56400
O1723       O  0.44259439  0.39630211  0.81286313    -0.55600
O1724       O  0.39554412  0.44484632  0.71380811    -0.56800
C1725       C  0.35970330  0.45711102  0.66060689     0.75800
O1726       O  0.37624503  0.47780674  0.78285010    -0.58000
C1727       C  0.40328815  0.44627366  0.74528186     0.75800
C1728       C  0.41937829  0.50831667  0.70743066     0.78200
Cd1729     Cd  0.38607842  0.46990010  0.72337126     1.37500
O1730       O  0.36152160  0.47091351  0.68132750    -0.56800
O1731       O  0.41812727  0.49262113  0.69562881    -0.55600
C1732       C  0.35933800  0.46256292  0.78359289     0.78100
O1733       O  0.40455286  0.50643763  0.72528932    -0.58000
O1734       O  0.37076116  0.45006149  0.66804148    -0.56500
O1735       O  0.40294400  0.45866334  0.76722613    -0.56400
O1736       O  0.35497559  0.45099121  0.75640640    -0.55600
O1737       O  0.22607300  0.29366902  0.85797608    -0.56800
C1738       C  0.21874938  0.24349005  0.79961552     0.75800
O1739       O  0.22632199  0.24604183  0.89966112    -0.58000
C1740       C  0.22976460  0.29774442  0.89204723     0.75800
C1741       C  0.16794889  0.25122008  0.85549313     0.78200
Cd1742     Cd  0.20765813  0.25774664  0.86493027     1.37500
O1743       O  0.22922524  0.26102803  0.81046370    -0.56800
O1744       O  0.18247121  0.26508625  0.83905974    -0.55600
C1745       C  0.21304163  0.23620156  0.92331811     0.78100
O1746       O  0.17187236  0.24025141  0.87486885    -0.58000
O1747       O  0.20328658  0.23313066  0.81828445    -0.56500
O1748       O  0.22376234  0.28327498  0.91352710    -0.56400
O1749       O  0.19692955  0.23634243  0.92010991    -0.55600
O1750       O  0.30393305  0.41454595  0.51450031    -0.56800
C1751       C  0.26573894  0.37821899  0.94360525     0.75800
O1752       O  0.26304858  0.43584529  0.96765756    -0.58000
C1753       C  0.30667316  0.42888504  0.53464911     0.75800
C1754       C  0.30820736  0.43991904  0.91076787     0.78200
Cd1755     Cd  0.28197400  0.41813297  0.97006356     1.37500
O1756       O  0.26552567  0.39148079  0.92444497    -0.56800
O1757       O  0.28960399  0.43100273  0.90745576    -0.55600
C1758       C  0.24879890  0.42360599  0.98724461     0.78100
O1759       O  0.31490126  0.44015440  0.94273971    -0.58000
O1760       O  0.27331931  0.38332780  0.97557590    -0.56500
O1761       O  0.29762528  0.43782305  0.52516351    -0.56400
O1762       O  0.25052775  0.40951518  0.49990533    -0.55600
O1763       O  0.44479953  0.29983212  0.59112676    -0.56800
C1764       C  0.42439095  0.24313836  0.53893683     0.75800
O1765       O  0.38276831  0.26667388  0.54292030    -0.58000
C1766       C  0.43299255  0.30057106  0.61432916     0.75800
C1767       C  0.42766085  0.30045486  0.98623692     0.78200
Cd1768     Cd  0.41722184  0.27532068  0.55066304     1.37500
O1769       O  0.43367408  0.25591470  0.56363140    -0.56800
O1770       O  0.43946006  0.29593901  0.50065113    -0.55600
C1771       C  0.37583746  0.25455467  0.56937072     0.78100
O1772       O  0.41083622  0.29319499  0.00131677    -0.58000
O1773       O  0.41276669  0.24599051  0.51887117    -0.56500
O1774       O  0.41483368  0.28995700  0.60734983    -0.56400
O1775       O  0.38810915  0.25139756  0.58664208    -0.55600
O1776       O  0.28341006  0.20062238  0.61911841    -0.56800
C1777       C  0.23836493  0.20891653  0.67531860     0.75800
O1778       O  0.22522178  0.19958030  0.57539341    -0.58000
C1779       C  0.29172607  0.21635538  0.60074268     0.75800
C1780       C  0.23844481  0.15326625  0.61318581     0.78200
Cd1781     Cd  0.24923017  0.19419020  0.61039037     1.37500
O1782       O  0.25485459  0.21839398  0.65913176    -0.56800
O1783       O  0.24798164  0.16540351  0.63865280    -0.55600
C1784       C  0.23377289  0.20210721  0.54436254     0.78100
O1785       O  0.23285167  0.15979879  0.58665251    -0.58000
O1786       O  0.22662080  0.19224222  0.66176730    -0.56500
O1787       O  0.28041202  0.22211341  0.58790936    -0.56400
O1788       O  0.24873211  0.19984357  0.54380823    -0.55600
O1789       O  0.70055232  0.10517425  0.99261758    -0.56800
C1790       C  0.74137959  0.10721943  0.56350149     0.75800
O1791       O  0.73968889  0.16281654  0.55435587    -0.58000
C1792       C  0.69426660  0.11588919  0.97921712     0.75800
C1793       C  0.69308027  0.11828074  0.60289877     0.78200
Cd1794     Cd  0.72037024  0.12737563  0.54254646     1.37500
O1795       O  0.73752356  0.10868249  0.52999274    -0.56800
O1796       O  0.69192890  0.10573491  0.57957504    -0.55600
C1797       C  0.75305126  0.16621948  0.53073836     0.78100
O1798       O  0.70704041  0.13565996  0.59819668    -0.58000
O1799       O  0.73553177  0.11508729  0.58715748    -0.56500
O1800       O  0.70039056  0.13218597  0.49428431    -0.56400
O1801       O  0.75074506  0.15173061  0.51169793    -0.55600
O1802       O  0.78379386  0.06183540  0.63704061    -0.56800
C1803       C  0.79314583  0.02501122  0.69636908     0.75800
O1804       O  0.81441443  0.03626733  0.57192307    -0.58000
C1805       C  0.78505797  0.06814632  0.60441005     0.75800
C1806       C  0.84541278  0.08141819  0.64084156     0.78200
Cd1807     Cd  0.80613865  0.04857701  0.62902537     1.37500
O1808       O  0.80914376  0.02901435  0.68008230    -0.56800
O1809       O  0.83000982  0.08033202  0.65481291    -0.55600
C1810       C  0.79777884  0.02077508  0.56990576     0.78100
O1811       O  0.84290178  0.06654019  0.62282076    -0.58000
O1812       O  0.78345584  0.03227282  0.68200117    -0.56500
O1813       O  0.79603177  0.06521087  0.58260585    -0.56400
O1814       O  0.78565528  0.01813963  0.59557635    -0.55600
O1815       O  0.74816580  0.96697125  0.83683419    -0.56800
C1816       C  0.70590078  0.92864000  0.89770480     0.75800
O1817       O  0.76197356  0.92170061  0.89622126    -0.58000
C1818       C  0.76443628  0.97123844  0.82140939     0.75800
C1819       C  0.76812253  0.96695708  0.94663512     0.78200
Cd1820     Cd  0.74787612  0.94350087  0.88238059     1.37500
O1821       O  0.71154234  0.92596043  0.86643304    -0.56800
O1822       O  0.75605331  0.94879469  0.94923739    -0.55600
C1823       C  0.75214345  0.90915351  0.87151564     0.78100
O1824       O  0.77143894  0.97392710  0.91421963    -0.58000
O1825       O  0.71956493  0.93876346  0.92045611    -0.56500
O1826       O  0.77297964  0.96228636  0.83358392    -0.56400
O1827       O  0.74119808  0.91300199  0.85158570    -0.55600
O1828       O  0.55811022  0.85947008  0.52421412    -0.56800
C1829       C  0.62446294  0.89067694  0.94940398     0.75800
O1830       O  0.56802168  0.83207456  0.96370951    -0.58000
C1831       C  0.56850483  0.87466340  0.54338664     0.75800
C1832       C  0.56238481  0.87468585  0.91943046     0.78200
Cd1833     Cd  0.58398356  0.86722842  0.97570310     1.37500
O1834       O  0.61976813  0.89233061  0.98228890    -0.56800
O1835       O  0.57276710  0.88746028  0.94338182    -0.55600
C1836       C  0.57966900  0.82881818  0.98282019     0.78100
O1837       O  0.56176633  0.85838398  0.92209886    -0.58000
O1838       O  0.61048371  0.87845395  0.92919295    -0.56500
O1839       O  0.58593496  0.88578503  0.53186318    -0.56400
O1840       O  0.59296418  0.84349778  0.49952730    -0.55600
O1841       O  0.54750322  0.91663193  0.67983240    -0.56800
C1842       C  0.54688082  0.95214941  0.74507215     0.75800
O1843       O  0.48764652  0.89475356  0.74261984    -0.58000
C1844       C  0.53832708  0.89951763  0.66643878     0.75800
C1845       C  0.52877589  0.89316509  0.79397062     0.78200
Cd1846     Cd  0.52313427  0.91081169  0.72868520     1.37500
O1847       O  0.52832544  0.94374271  0.74067089    -0.56800
O1848       O  0.52758592  0.88577557  0.76229946    -0.55600
C1849       C  0.48270182  0.90184664  0.71599584     0.78100
O1850       O  0.52582089  0.90753800  0.79525879    -0.58000
O1851       O  0.55468080  0.94153972  0.74045487    -0.56500
O1852       O  0.52166480  0.88806850  0.68069637    -0.56400
O1853       O  0.49637931  0.91238954  0.69355959    -0.55600
O1854       O  0.60928373  0.04424540  0.77753098    -0.56800
C1855       C  0.63923354  0.08806620  0.85505939     0.75800
O1856       O  0.64149341  0.10159029  0.75470548    -0.58000
C1857       C  0.59083185  0.03458597  0.78336947     0.75800
C1858       C  0.58319678  0.08754243  0.79530827     0.78200
Cd1859     Cd  0.61337488  0.07656601  0.79061865     1.37500
O1860       O  0.63138473  0.07089856  0.84193444    -0.56800
O1861       O  0.58906874  0.08196612  0.82292136    -0.55600
C1862       C  0.63760603  0.09167544  0.72512343     0.78100
O1863       O  0.59238794  0.08951603  0.76525909    -0.58000
O1864       O  0.63491099  0.09959925  0.83861095    -0.56500
O1865       O  0.58290531  0.04433176  0.79444417    -0.56400
O1866       O  0.62202206  0.07517137  0.72549073    -0.55600
O1867       O  0.35315292  0.91379196  0.68489134    -0.56800
C1868       C  0.40111899  0.95204526  0.73936161     0.75800
O1869       O  0.35990243  0.91283790  0.78051211    -0.58000
C1870       C  0.34883109  0.89879433  0.66551938     0.75800
C1871       C  0.40806636  0.90099934  0.71847708     0.78200
Cd1872     Cd  0.37678936  0.91051425  0.72634370     1.37500
O1873       O  0.39794242  0.93928037  0.76363595    -0.56800
O1874       O  0.40516070  0.91118647  0.69497236    -0.55600
C1875       C  0.35175489  0.89518510  0.79061858     0.78100
O1876       O  0.39573890  0.89421918  0.74476815    -0.58000
O1877       O  0.39313154  0.94558726  0.70805360    -0.56500
O1878       O  0.35757370  0.88946792  0.67420026    -0.56400
O1879       O  0.35480952  0.88384506  0.77020647    -0.55600
O1880       O  0.50131145  0.08942324  0.77210242    -0.56800
C1881       C  0.45457192  0.09114667  0.73392750     0.75800
O1882       O  0.44965067  0.04061551  0.81100439    -0.58000
C1883       C  0.50744678  0.08404377  0.79963969     0.75800
C1884       C  0.45618621  0.09074543  0.85761153     0.78200
Cd1885     Cd  0.46710848  0.07583189  0.79406482     1.37500
O1886       O  0.47268068  0.09869486  0.74261709    -0.56800
O1887       O  0.47203575  0.10152985  0.84020239    -0.55600
C1888       C  0.44706459  0.03438229  0.77795383     0.78100
O1889       O  0.44599409  0.07337423  0.84584466    -0.58000
O1890       O  0.44248771  0.07711851  0.75390950    -0.56500
O1891       O  0.49497943  0.07535610  0.82509362    -0.56400
O1892       O  0.45413599  0.04729102  0.75301594    -0.55600
O1893       O  0.43870523  0.13027735  0.00207692    -0.56800
C1894       C  0.37129115  0.10930894  0.56134045     0.75800
O1895       O  0.43898196  0.13502012  0.59237234    -0.58000
C1896       C  0.42697111  0.11634023  0.98130943     0.75800
C1897       C  0.42073677  0.16814919  0.53386491     0.78200
Cd1898     Cd  0.41304762  0.12876746  0.54474772     1.37500
O1899       O  0.37842051  0.10344467  0.53608565    -0.56800
O1900       O  0.41076355  0.15476850  0.51058569    -0.55600
C1901       C  0.42909405  0.11848591  0.60762479     0.78100
O1902       O  0.42778700  0.16336838  0.56083285    -0.58000
O1903       O  0.38352410  0.12454852  0.57874574    -0.56500
O1904       O  0.40858233  0.10817273  0.48970141    -0.56400
O1905       O  0.41234757  0.10720573  0.59350385    -0.55600
O1906       O  0.24831241  0.02845546  0.65515160    -0.56800
C1907       C  0.28720163  0.06569833  0.59363563     0.75800
O1908       O  0.24798852  0.03948159  0.53825709    -0.58000
C1909       C  0.23025097  0.01905666  0.66421886     0.75800
C1910       C  0.23707734  0.07914350  0.61186817     0.78200
Cd1911     Cd  0.24483833  0.04692083  0.60319359     1.37500
O1912       O  0.27604602  0.04786556  0.58526546    -0.56800
O1913       O  0.24471882  0.07408905  0.63733954    -0.55600
C1914       C  0.23014568  0.02639201  0.53392447     0.78100
O1915       O  0.23217196  0.06868925  0.58285177    -0.58000
O1916       O  0.27878567  0.07429422  0.60822562    -0.56500
O1917       O  0.21879625  0.02255602  0.64509610    -0.56400
O1918       O  0.21880768  0.02337510  0.56127594    -0.55600
O1919       O  0.21538041  0.96019427  0.80577794    -0.56800
C1920       C  0.21092290  0.92239550  0.88654300     0.75800
O1921       O  0.21427329  0.97016006  0.89300397    -0.58000
C1922       C  0.20459998  0.96561315  0.78933189     0.75800
C1923       C  0.15222807  0.90892733  0.85099159     0.78200
Cd1924     Cd  0.19152715  0.94244295  0.85663426     1.37500
O1925       O  0.21048985  0.92511548  0.85205302    -0.56800
O1926       O  0.16653566  0.91093862  0.83119161    -0.55600
C1927       C  0.20173053  0.97292875  0.91020481     0.78100
O1928       O  0.15573793  0.92317189  0.87211862    -0.58000
O1929       O  0.20240396  0.92902030  0.90697216    -0.56500
O1930       O  0.18755839  0.95950990  0.80301213    -0.56400
O1931       O  0.18372536  0.96156559  0.90196515    -0.55600
O1932       O  0.28770106  0.88373336  0.52885673    -0.56800
C1933       C  0.25174118  0.88346144  0.94419846     0.75800
O1934       O  0.28707689  0.85560690  0.92391090    -0.58000
C1935       C  0.29437237  0.87305713  0.54094255     0.75800
C1936       C  0.23609815  0.82609527  0.98609687     0.78200
Cd1937     Cd  0.27078198  0.86342282  0.97444551     1.37500
O1938       O  0.25762603  0.88597514  0.97757792    -0.56800
O1939       O  0.23810908  0.84151929  0.50102336    -0.55600
C1940       C  0.30033173  0.87323728  0.91843624     0.78100
O1941       O  0.25047304  0.82793995  0.96660773    -0.58000
O1942       O  0.25492467  0.87185921  0.92497290    -0.56500
O1943       O  0.28938201  0.85746550  0.52298381    -0.56400
O1944       O  0.30003655  0.88587219  0.93971049    -0.55600
C1945       C  0.22992236  0.90499058  0.87732922    -0.11300
C1946       C  0.22097506  0.91213999  0.90189077     0.05700
C1947       C  0.22206868  0.90947675  0.94038752    -0.06600
C1948       C  0.23230303  0.90028319  0.95338816    -0.07300
C1949       C  0.24136202  0.89330713  0.92883806    -0.01900
C1950       C  0.23996164  0.89559208  0.89035657     0.05000
N1951       N  0.24912532  0.88902265  0.86402986     0.67500
H1952       H  0.22927959  0.90678822  0.84778581     0.16400
H1953       H  0.23293650  0.89840411  0.98291395     0.16100
N1954       N  0.21282296  0.91586176  0.96687430     0.75200
O1955       O  0.23868371  0.87323971  0.84660230    -0.38300
O1956       O  0.26635848  0.90077578  0.85270554    -0.38200
O1957       O  0.19610435  0.90367473  0.97974575    -0.38900
O1958       O  0.22279369  0.93183056  0.48335773    -0.39000
C1959       C  0.20251452  0.00326260  0.49326797    -0.11300
C1960       C  0.22298142  0.01474616  0.49937713     0.05700
C1961       C  0.23609324  0.01368184  0.47365257    -0.06600
C1962       C  0.22873606  0.00066766  0.94400338    -0.07300
C1963       C  0.20830746  0.98832474  0.93907987    -0.01900
C1964       C  0.19515021  0.99017972  0.96348252     0.05000
N1965       N  0.17420202  0.97839801  0.95939740     0.67500
H1966       H  0.19219229  0.00402294  0.51239073     0.16400
H1967       H  0.23917790  0.99970649  0.92549238     0.16100
N1968       N  0.25704473  0.02445455  0.47870593     0.75200
O1969       O  0.16509842  0.96250801  0.97691571    -0.38300
O1970       O  0.16458175  0.98583449  0.94560099    -0.38200
O1971       O  0.26562416  0.01576768  0.49168567    -0.38900
O1972       O  0.26707174  0.04030735  0.46145224    -0.39000
C1973       C  0.23713210  0.00219301  0.71552890    -0.11300
C1974       C  0.22321221  0.00488515  0.69548900     0.05700
C1975       C  0.20308979  0.99407662  0.70609769    -0.06600
C1976       C  0.19744752  0.98112616  0.73604590    -0.07300
C1977       C  0.21139978  0.97862275  0.75635056    -0.01900
C1978       C  0.23150830  0.98935866  0.74566383     0.05000
N1979       N  0.24661438  0.98812742  0.76586733     0.67500
H1980       H  0.25266632  0.01033735  0.70816742     0.16400
H1981       H  0.18194923  0.97313928  0.74371608     0.16100
N1982       N  0.18813906  0.99624808  0.68741530     0.75200
O1983       O  0.25290328  0.97713340  0.75400467    -0.38300
O1984       O  0.25679308  0.00128656  0.78924760    -0.38200
O1985       O  0.17691406  0.98328453  0.66460566    -0.38900
O1986       O  0.18311554  0.00807314  0.70019181    -0.39000
C1987       C  0.33843751  0.07920183  0.55724307    -0.11300
C1988       C  0.34986903  0.09847343  0.57024998     0.05700
C1989       C  0.34054411  0.10670098  0.59143191    -0.06600
C1990       C  0.32028749  0.09561056  0.59918210    -0.07300
C1991       C  0.30882910  0.07630074  0.58619509    -0.01900
C1992       C  0.31819427  0.06812387  0.56491973     0.05000
N1993       N  0.30737044  0.04891177  0.54948903     0.67500
H1994       H  0.34522986  0.07257787  0.54082187     0.16400
H1995       H  0.31346686  0.10234215  0.61519242     0.16100
N1996       N  0.35114774  0.12649603  0.60420101     0.75200
O1997       O  0.30188577  0.04701910  0.51613833    -0.38300
O1998       O  0.30816101  0.03501653  0.56512398    -0.38200
O1999       O  0.34955533  0.13949032  0.58672040    -0.38900
O2000       O  0.35789476  0.13001741  0.63680323    -0.39000
C2001       C  0.46114999  0.11622674  0.68554753    -0.11300
C2002       C  0.44793038  0.09823034  0.70196966     0.05700
C2003       C  0.42865649  0.08722238  0.68711209    -0.06600
C2004       C  0.42305432  0.09429235  0.65676105    -0.07300
C2005       C  0.43619259  0.11226175  0.64024291    -0.01900
C2006       C  0.45548306  0.12335393  0.65509881     0.05000
N2007       N  0.46958658  0.14176042  0.63965555     0.67500
H2008       H  0.47600901  0.12493245  0.69649139     0.16400
H2009       H  0.40819687  0.08542264  0.64591518     0.16100
N2010       N  0.41467126  0.06850058  0.70159996     0.75200
O2011       O  0.47086296  0.15725549  0.65257337    -0.38300
O2012       O  0.48350834  0.14282468  0.62005318    -0.38200
O2013       O  0.40055902  0.06689673  0.72131996    -0.38900
O2014       O  0.41383299  0.05331862  0.68802739    -0.39000
C2015       C  0.42973853  0.08609140  0.90142356    -0.11300
C2016       C  0.44934760  0.09777251  0.88947009     0.05700
C2017       C  0.46152031  0.11568357  0.90793374    -0.06600
C2018       C  0.45388877  0.12143777  0.93756597    -0.07300
C2019       C  0.43421405  0.10973886  0.94937756    -0.01900
C2020       C  0.42210515  0.09183484  0.93086252     0.05000
N2021       N  0.40192953  0.07872638  0.44212155     0.67500
H2022       H  0.42007608  0.07230102  0.88773216     0.16400
H2023       H  0.46350290  0.13517984  0.95144355     0.16100
N2024       N  0.48174179  0.12803105  0.89769400     0.75200
O2025       O  0.38801432  0.07913943  0.42504615    -0.38300
O2026       O  0.39815328  0.06406808  0.46179728    -0.38200
O2027       O  0.48652096  0.14332215  0.87925425    -0.38900
O2028       O  0.49502983  0.12620016  0.91408567    -0.39000
C2029       C  0.34026563  0.90333751  0.84824833    -0.11300
C2030       C  0.33951201  0.88878155  0.82465366     0.05700
C2031       C  0.32694442  0.86894978  0.83403364    -0.06600
C2032       C  0.31474105  0.86418999  0.86533264    -0.07300
C2033       C  0.31492644  0.87883935  0.88798216    -0.01900
C2034       C  0.32833020  0.89864198  0.87961540     0.05000
N2035       N  0.32983837  0.91431069  0.90207400     0.67500
H2036       H  0.35012592  0.91867481  0.84222651     0.16400
H2037       H  0.30476240  0.84889164  0.87143513     0.16100
N2038       N  0.32592081  0.85344741  0.81176327     0.75200
O2039       O  0.34281642  0.92136521  0.92719860    -0.38300
O2040       O  0.32164172  0.92381055  0.89144750    -0.38200
O2041       O  0.33470212  0.84452010  0.82246337    -0.38900
O2042       O  0.31278654  0.84583188  0.78701274    -0.39000
C2043       C  0.31193054  0.89613681  0.59284670    -0.11300
C2044       C  0.30763103  0.87888160  0.57377089     0.05700
C2045       C  0.31672718  0.86815737  0.58569857    -0.06600
C2046       C  0.32985133  0.87487665  0.61571538    -0.07300
C2047       C  0.33439259  0.89228372  0.63444826    -0.01900
C2048       C  0.32514938  0.90291508  0.62276584     0.05000
N2049       N  0.32918896  0.92082084  0.64030515     0.67500
H2050       H  0.30520932  0.90463144  0.58429430     0.16400
H2051       H  0.33668254  0.86644836  0.62404568     0.16100
N2052       N  0.31330477  0.85065869  0.56726157     0.75200
O2053       O  0.34109759  0.93685438  0.62519544    -0.38300
O2054       O  0.31755344  0.92053542  0.66495323    -0.38200
O2055       O  0.32494010  0.85172016  0.54186904    -0.38900
O2056       O  0.30199450  0.83430883  0.58195269    -0.39000
C2057       C  0.42098002  0.97880470  0.78409369    -0.11300
C2058       C  0.41335852  0.97324116  0.74802519     0.05700
C2059       C  0.41738658  0.98803978  0.72180692    -0.06600
C2060       C  0.42866307  0.00775710  0.73211112    -0.07300
C2061       C  0.43596577  0.01327037  0.76835829    -0.01900
C2062       C  0.43207462  0.99850169  0.79446379     0.05000
N2063       N  0.43945233  0.00315031  0.83150765     0.67500
H2064       H  0.41820801  0.96777780  0.80475845     0.16400
H2065       H  0.43137600  0.01884643  0.71161146     0.16100
N2066       N  0.40996504  0.98343627  0.68478251     0.75200
O2067       O  0.42821549  0.00283771  0.85701972    -0.38300
O2068       O  0.45520337  0.00318676  0.83981157    -0.38200
O2069       O  0.39431696  0.98361417  0.67651765    -0.38900
O2070       O  0.42111043  0.98359607  0.65923641    -0.39000
C2071       C  0.55347693  0.08246839  0.82951812    -0.11300
C2072       C  0.56552656  0.08996445  0.79804044     0.05700
C2073       C  0.55913462  0.09739539  0.76886179    -0.06600
C2074       C  0.54049598  0.09598558  0.77067134    -0.07300
C2075       C  0.52788396  0.08723164  0.80110026    -0.01900
C2076       C  0.53482395  0.08090328  0.83123071     0.05000
N2077       N  0.52288528  0.07200340  0.86317948     0.67500
H2078       H  0.55804755  0.07677710  0.85238496     0.16400
H2079       H  0.53570471  0.10132020  0.74756409     0.16100
N2080       N  0.57118802  0.10626557  0.73703806     0.75200
O2081       O  0.51196057  0.05364622  0.86405276    -0.38300
O2082       O  0.52675111  0.08166037  0.89296587    -0.38200
O2083       O  0.56722546  0.09670621  0.70711649    -0.38900
O2084       O  0.58217326  0.12461446  0.73632135    -0.39000
C2085       C  0.44957294  0.89078700  0.74366486    -0.11300
C2086       C  0.46230429  0.89884084  0.71315235     0.05700
C2087       C  0.45577114  0.90530235  0.68258666    -0.06600
C2088       C  0.43759151  0.90491138  0.68424502    -0.07300
C2089       C  0.42551092  0.89812011  0.71586129    -0.01900
C2090       C  0.43140470  0.89037991  0.74532290     0.05000
N2091       N  0.41976314  0.88304759  0.77814104     0.67500
H2092       H  0.45407346  0.88553513  0.76729438     0.16400
H2093       H  0.43323691  0.91053621  0.66098383     0.16100
N2094       N  0.46741307  0.91257307  0.64976755     0.75200
O2095       O  0.40803919  0.86490312  0.78120008    -0.38300
O2096       O  0.42438925  0.89379114  0.80660251    -0.38200
O2097       O  0.46343470  0.90132221  0.62220297    -0.38900
O2098       O  0.47780281  0.93081343  0.64517249    -0.39000
C2099       C  0.58952156  0.00343677  0.76581651    -0.11300
C2100       C  0.57930506  0.01320037  0.77629026     0.05700
C2101       C  0.55840318  0.00252249  0.77741206    -0.06600
C2102       C  0.54828835  0.98276483  0.76704437    -0.07300
C2103       C  0.55850251  0.97311793  0.75573451    -0.01900
C2104       C  0.57941001  0.98365119  0.75568578     0.05000
N2105       N  0.59072411  0.97475581  0.74453188     0.67500
H2106       H  0.60551825  0.01125495  0.76479730     0.16400
H2107       H  0.53228841  0.97495803  0.76790909     0.16100
N2108       N  0.54709519  0.01146731  0.78835947     0.75200
O2109       O  0.59580422  0.97573447  0.71105897    -0.38300
O2110       O  0.59938153  0.97024983  0.76884290    -0.38200
O2111       O  0.53924526  0.01680903  0.76386710    -0.38900
O2112       O  0.54143706  0.01005282  0.82153690    -0.39000
C2113       C  0.53418616  0.87497210  0.61859819    -0.11300
C2114       C  0.54650499  0.89302837  0.63595340     0.05700
C2115       C  0.56638556  0.90413851  0.62433168    -0.06600
C2116       C  0.57323773  0.89753430  0.59490732    -0.07300
C2117       C  0.56076264  0.87980474  0.57663724    -0.01900
C2118       C  0.54110747  0.86823303  0.58941339     0.05000
N2119       N  0.52788008  0.84959551  0.57338004     0.67500
H2120       H  0.51904538  0.86601114  0.62752684     0.16400
H2121       H  0.58840944  0.90651603  0.58617253     0.16100
N2122       N  0.58004024  0.92198956  0.64242467     0.75200
O2123       O  0.52640225  0.83438493  0.58793834    -0.38300
O2124       O  0.51442745  0.84802759  0.55179829    -0.38200
O2125       O  0.59148908  0.92175627  0.66687590    -0.38900
O2126       O  0.58370221  0.93809353  0.62839509    -0.39000
C2127       C  0.54126911  0.89914286  0.85834880    -0.11300
C2128       C  0.53473254  0.88658120  0.82748788     0.05700
C2129       C  0.53612539  0.86937851  0.82832801    -0.06600
C2130       C  0.54450326  0.86548008  0.85915869    -0.07300
C2131       C  0.55198323  0.87860571  0.88918278    -0.01900
C2132       C  0.55005586  0.89550698  0.88870341     0.05000
N2133       N  0.55751785  0.90956154  0.91809025     0.67500
H2134       H  0.54048632  0.91249771  0.85831710     0.16400
H2135       H  0.54573039  0.85236939  0.85894292     0.16100
N2136       N  0.52954924  0.85590408  0.79795835     0.75200
O2137       O  0.57463832  0.92424646  0.91535984    -0.38300
O2138       O  0.54563802  0.90979551  0.94159104    -0.38200
O2139       O  0.54214018  0.85571842  0.77618504    -0.38900
O2140       O  0.51210668  0.84161604  0.79796522    -0.39000
C2141       C  0.68011193  0.92591970  0.94204508    -0.11300
C2142       C  0.68467859  0.92011722  0.90826676     0.05700
C2143       C  0.66898262  0.90554008  0.88702662    -0.06600
C2144       C  0.64953696  0.89660522  0.90058077    -0.07300
C2145       C  0.64512057  0.90183615  0.93513034    -0.01900
C2146       C  0.66066833  0.91706786  0.95546873     0.05000
N2147       N  0.65709182  0.92382728  0.98981516     0.67500
H2148       H  0.69177642  0.93728021  0.95863099     0.16400
H2149       H  0.63788886  0.88510470  0.88420076     0.16100
N2150       N  0.67247002  0.89903829  0.85229266     0.75200
O2151       O  0.66075642  0.91809760  0.01983575    -0.38300
O2152       O  0.65429315  0.93878330  0.48914026    -0.38200
O2153       O  0.67366932  0.88364918  0.85108868    -0.38900
O2154       O  0.66960384  0.90574288  0.82269539    -0.39000
C2155       C  0.79362671  0.99858611  0.97426961    -0.11300
C2156       C  0.77742056  0.97968215  0.97945253     0.05700
C2157       C  0.76954558  0.97400467  0.01545693    -0.06600
C2158       C  0.77637511  0.98747913  0.54464843    -0.07300
C2159       C  0.79223148  0.00647963  0.53917643    -0.01900
C2160       C  0.80119907  0.01160828  0.50389986     0.05000
N2161       N  0.81742222  0.03072709  0.49668885     0.67500
H2162       H  0.80001606  0.00322630  0.94696300     0.16400
H2163       H  0.76942769  0.98316559  0.57161386     0.16100
N2164       N  0.75306604  0.95505472  0.02263646     0.75200
O2165       O  0.83476437  0.03333579  0.49565045    -0.38300
O2166       O  0.81410255  0.04368456  0.48377098    -0.38200
O2167       O  0.75608064  0.94195501  0.03583803    -0.38900
O2168       O  0.73589734  0.95288232  0.02398829    -0.39000
C2169       C  0.76127888  0.99369246  0.77694891    -0.11300
C2170       C  0.77266457  0.98578135  0.79069780     0.05700
C2171       C  0.79137695  0.99186196  0.77446199    -0.06600
C2172       C  0.79777429  0.00478454  0.74430143    -0.07300
C2173       C  0.78608860  0.01220981  0.72980486    -0.01900
C2174       C  0.76774930  0.00676115  0.74710269     0.05000
N2175       N  0.75526804  0.01408984  0.73465458     0.67500
H2176       H  0.74701496  0.98954333  0.78912782     0.16400
H2177       H  0.81203722  0.00896134  0.73209254     0.16100
N2178       N  0.80426351  0.98532120  0.78833643     0.75200
O2179       O  0.74162333  0.00415182  0.71180309    -0.38300
O2180       O  0.75470733  0.02750467  0.75289232    -0.38200
O2181       O  0.80623511  0.97262087  0.77038653    -0.38900
O2182       O  0.81685095  0.99533081  0.81283583    -0.39000
C2183       C  0.66138910  0.09411504  0.63164834    -0.11300
C2184       C  0.67865770  0.11247648  0.63367349     0.05700
C2185       C  0.68184347  0.12426782  0.66532692    -0.06600
C2186       C  0.66797172  0.11744633  0.69414895    -0.07300
C2187       C  0.65092849  0.09884997  0.69249877    -0.01900
C2188       C  0.64766024  0.08719095  0.66054213     0.05000
N2189       N  0.63087140  0.06799893  0.65722804     0.67500
H2190       H  0.65858915  0.08480750  0.60765070     0.16400
H2191       H  0.67090410  0.12659629  0.71842348     0.16100
N2192       N  0.69953908  0.14268869  0.66976975     0.75200
O2193       O  0.61646867  0.06538979  0.63724587    -0.38300
O2194       O  0.63241704  0.05342041  0.66677844    -0.38200
O2195       O  0.69906146  0.15827522  0.66452998    -0.38900
O2196       O  0.71405111  0.14340696  0.68671688    -0.39000
C2197       C  0.66051912  0.11392881  0.90049490    -0.11300
C2198       C  0.65288432  0.09464397  0.88749463     0.05700
C2199       C  0.65880551  0.08244825  0.90539800    -0.06600
C2200       C  0.67232900  0.08977393  0.93483581    -0.07300
C2201       C  0.68009098  0.10910647  0.94761568    -0.01900
C2202       C  0.67385468  0.12117573  0.93023573     0.05000
N2203       N  0.68086205  0.14085987  0.94216435     0.67500
H2204       H  0.65617710  0.12356186  0.88751193     0.16400
H2205       H  0.67662380  0.08012550  0.94791000     0.16100
N2206       N  0.65122614  0.06253056  0.89443856     0.75200
O2207       O  0.69542984  0.15465761  0.92587230    -0.38300
O2208       O  0.66996145  0.14464209  0.96240426    -0.38200
O2209       O  0.66193017  0.05799646  0.87532508    -0.38900
O2210       O  0.63636729  0.04925773  0.91104867    -0.39000
C2211       C  0.76251647  0.08099504  0.61953967    -0.11300
C2212       C  0.77419431  0.07834026  0.59301364     0.05700
C2213       C  0.77494442  0.08530597  0.55664300    -0.06600
C2214       C  0.76396819  0.09442556  0.54759676    -0.07300
C2215       C  0.75233701  0.09707072  0.57422363    -0.01900
C2216       C  0.75170129  0.09023350  0.61057965     0.05000
N2217       N  0.73964171  0.09190082  0.63859520     0.67500
H2218       H  0.76157856  0.07573546  0.64749672     0.16400
H2219       H  0.76482812  0.09973572  0.51969959     0.16100
N2220       N  0.78684064  0.08345544  0.52851509     0.75200
O2221       O  0.72183567  0.07856082  0.64176620    -0.38300
O2222       O  0.74773198  0.10405550  0.66464408    -0.38200
O2223       O  0.77860170  0.07106741  0.50287536    -0.38900
O2224       O  0.80460010  0.09681639  0.52476472    -0.39000
C2225       C  0.22654859  0.10173723  0.58511417    -0.11300
C2226       C  0.23479215  0.09676791  0.61492849     0.05700
C2227       C  0.24204800  0.10960448  0.64569068    -0.06600
C2228       C  0.24204218  0.12734751  0.64507195    -0.07300
C2229       C  0.23506883  0.13295115  0.61424129    -0.01900
C2230       C  0.22663491  0.11959380  0.58444031     0.05000
N2231       N  0.21884903  0.12415467  0.55256243     0.67500
H2232       H  0.22065265  0.09205404  0.56137992     0.16400
H2233       H  0.24831266  0.13715000  0.66856023     0.16100
N2234       N  0.25039013  0.10542139  0.67718928     0.75200
O2235       O  0.23001341  0.13238673  0.52523653    -0.38300
O2236       O  0.20034728  0.11615583  0.54846817    -0.38200
O2237       O  0.26894020  0.11308599  0.67966663    -0.38900
O2238       O  0.23988105  0.09810247  0.70565303    -0.39000
C2239       C  0.41399883  0.21126586  0.50798590    -0.11300
C2240       C  0.42601537  0.22524677  0.53452205     0.05700
C2241       C  0.43777378  0.22089462  0.55811048    -0.06600
C2242       C  0.43645034  0.20253997  0.55608535    -0.07300
C2243       C  0.42353630  0.18814927  0.53105111    -0.01900
C2244       C  0.41257752  0.19287079  0.50612428     0.05000
N2245       N  0.39900987  0.17886563  0.48023809     0.67500
H2246       H  0.40488327  0.21424404  0.48941996     0.16400
H2247       H  0.44521043  0.19936472  0.57519934     0.16100
N2248       N  0.45059483  0.23455894  0.58525814     0.75200
O2249       O  0.38100945  0.16862330  0.48898348    -0.38300
O2250       O  0.40395787  0.17994467  0.44666488    -0.38200
O2251       O  0.44514021  0.23242376  0.61866287    -0.38900
O2252       O  0.46868631  0.24555975  0.07828102    -0.39000
C2253       C  0.32547903  0.22177479  0.61418247    -0.11300
C2254       C  0.31341650  0.22709361  0.59417399     0.05700
C2255       C  0.32230236  0.24193425  0.56720191    -0.06600
C2256       C  0.34253150  0.25052516  0.55994458    -0.07300
C2257       C  0.35454256  0.24496300  0.57928624    -0.01900
C2258       C  0.34585777  0.23063664  0.60728487     0.05000
N2259       N  0.35735870  0.22483221  0.62905584     0.67500
H2260       H  0.31908869  0.21060923  0.63528642     0.16400
H2261       H  0.34879721  0.26160185  0.53865632     0.16100
N2262       N  0.31099973  0.24791919  0.54537147     0.75200
O2263       O  0.36366612  0.23271772  0.66031187    -0.38300
O2264       O  0.35708185  0.20905733  0.62138469    -0.38200
O2265       O  0.30955873  0.26247243  0.55577009    -0.38900
O2266       O  0.30777745  0.24267611  0.51187562    -0.39000
C2267       C  0.23352726  0.22350754  0.45038745    -0.11300
C2268       C  0.21662152  0.22539170  0.95300418     0.05700
C2269       C  0.20420684  0.21754267  0.98424795    -0.06600
C2270       C  0.20966530  0.20932110  0.51301806    -0.07300
C2271       C  0.22714571  0.20830504  0.51113475    -0.01900
C2272       C  0.23876649  0.21492442  0.47866303     0.05000
N2273       N  0.25649381  0.21399280  0.47435449     0.67500
H2274       H  0.24306056  0.22899120  0.42632114     0.16400
H2275       H  0.20033795  0.20408509  0.53737765     0.16100
N2276       N  0.18634525  0.21830486  0.98792219     0.75200
O2277       O  0.25560856  0.19915178  0.45904077    -0.38300
O2278       O  0.27289858  0.22964390  0.47593889    -0.38200
O2279       O  0.17011679  0.20349789  0.97906141    -0.38900
O2280       O  0.18625581  0.23145660  0.00784450    -0.39000
C2281       C  0.21278534  0.21483143  0.76078571    -0.11300
C2282       C  0.22408448  0.23509284  0.76747265     0.05700
C2283       C  0.24024179  0.24648192  0.74383928    -0.06600
C2284       C  0.24467755  0.23755827  0.71452780    -0.07300
C2285       C  0.23325437  0.21733621  0.70766788    -0.01900
C2286       C  0.21718571  0.20592834  0.73141741     0.05000
N2287       N  0.20545585  0.18520047  0.72696315     0.67500
H2288       H  0.20049186  0.20568636  0.77868445     0.16400
H2289       H  0.25699102  0.24665747  0.69662930     0.16100
N2290       N  0.25210137  0.26718502  0.74845725     0.75200
O2291       O  0.21003551  0.17424927  0.74470971    -0.38300
O2292       O  0.18840105  0.17799499  0.71294693    -0.38200
O2293       O  0.26921257  0.27426229  0.76216538    -0.38900
O2294       O  0.24752796  0.27825118  0.73111043    -0.39000
C2295       C  0.24331942  0.33325374  0.88070977    -0.11300
C2296       C  0.23999267  0.31831045  0.90569560     0.05700
C2297       C  0.24593435  0.32341201  0.94303529    -0.06600
C2298       C  0.25459169  0.34299337  0.95451205    -0.07300
C2299       C  0.25738846  0.35783557  0.92967864    -0.01900
C2300       C  0.25183713  0.35277129  0.89221275     0.05000
N2301       N  0.25483009  0.36720839  0.86521595     0.67500
H2302       H  0.23902398  0.32979459  0.85191849     0.16400
H2303       H  0.25881760  0.34650724  0.98332087     0.16100
N2304       N  0.24325194  0.30899570  0.96984717     0.75200
O2305       O  0.27018258  0.37440182  0.84536686    -0.38300
O2306       O  0.24046804  0.36940725  0.85573850    -0.38200
O2307       O  0.25792307  0.30739340  0.97968269    -0.38900
O2308       O  0.22780711  0.30134747  0.98945738    -0.39000
C2309       C  0.35333589  0.46745173  0.84929580    -0.11300
C2310       C  0.34568782  0.45820061  0.81509922     0.05700
C2311       C  0.32535223  0.44426578  0.81233152    -0.06600
C2312       C  0.31331504  0.43952665  0.84357171    -0.07300
C2313       C  0.32113167  0.44802970  0.87813826    -0.01900
C2314       C  0.34131936  0.46235378  0.88081305     0.05000
N2315       N  0.34990749  0.47181272  0.91518308     0.67500
H2316       H  0.36886690  0.47823411  0.85195414     0.16400
H2317       H  0.29788769  0.42840677  0.84096811     0.16100
N2318       N  0.31662168  0.43451767  0.77823828     0.75200
O2319       O  0.36078119  0.46695736  0.93278729    -0.38300
O2320       O  0.35041056  0.48765438  0.92323670    -0.38200
O2321       O  0.31353306  0.41737721  0.77292311    -0.38900
O2322       O  0.30775132  0.44086087  0.75832086    -0.39000
C2323       C  0.34786004  0.43792024  0.60219384    -0.11300
C2324       C  0.34555589  0.44950133  0.62924367     0.05700
C2325       C  0.32970310  0.45327754  0.62583745    -0.06600
C2326       C  0.31724879  0.44638055  0.59487797    -0.07300
C2327       C  0.31981806  0.43515596  0.56745572    -0.01900
C2328       C  0.33510376  0.43061690  0.57170084     0.05000
N2329       N  0.33832743  0.41911796  0.54485769     0.67500
H2330       H  0.35974718  0.43464023  0.60442781     0.16400
H2331       H  0.30527875  0.44954425  0.59267962     0.16100
N2332       N  0.32529691  0.46311820  0.65441663     0.75200
O2333       O  0.35082020  0.42754656  0.51941394    -0.38300
O2334       O  0.33202330  0.40122707  0.55111604    -0.38200
O2335       O  0.32891795  0.48042389  0.64930194    -0.38900
O2336       O  0.31388332  0.45322348  0.68038523    -0.39000
C2337       C  0.46291031  0.34097513  0.68425157    -0.11300
C2338       C  0.44822878  0.33767368  0.71051292     0.05700
C2339       C  0.42919811  0.32117029  0.70621198    -0.06600
C2340       C  0.42496600  0.30917317  0.67515389    -0.07300
C2341       C  0.43932898  0.31296963  0.64797569    -0.01900
C2342       C  0.45867686  0.32876423  0.65325260     0.05000
N2343       N  0.47403056  0.33306545  0.62701336     0.67500
H2344       H  0.47768997  0.35340955  0.68720287     0.16400
H2345       H  0.41013953  0.29678917  0.67228285     0.16100
N2346       N  0.41393645  0.31619274  0.73305527     0.75200
O2347       O  0.47730167  0.34531563  0.60171327    -0.38300
O2348       O  0.48692265  0.32829926  0.63417380    -0.38200
O2349       O  0.39966582  0.31891514  0.72557209    -0.38900
O2350       O  0.41225162  0.30496527  0.75936883    -0.39000
C2351       C  0.42782056  0.33412571  0.91020609    -0.11300
C2352       C  0.44627274  0.34035214  0.89341279     0.05700
C2353       C  0.45817433  0.33276143  0.90666982    -0.06600
C2354       C  0.45170068  0.31972144  0.93655027    -0.07300
C2355       C  0.43338678  0.31376225  0.95375183    -0.01900
C2356       C  0.42128401  0.32099281  0.93987398     0.05000
N2357       N  0.40244168  0.31551141  0.95579704     0.67500
H2358       H  0.41828483  0.33952633  0.90037687     0.16400
H2359       H  0.46119822  0.31427606  0.94637899     0.16100
N2360       N  0.47691856  0.33812964  0.89042138     0.75200
O2361       O  0.40111551  0.32664270  0.97943853    -0.38300
O2362       O  0.38696078  0.30256665  0.94001285    -0.38200
O2363       O  0.49250577  0.35117633  0.90573919    -0.38900
O2364       O  0.47808589  0.32700756  0.86653876    -0.39000
C2365       C  0.42832624  0.42259979  0.79822646    -0.11300
C2366       C  0.43014139  0.41105045  0.77047227     0.05700
C2367       C  0.42283487  0.41105152  0.73466138    -0.06600
C2368       C  0.41395452  0.42239072  0.72748255    -0.07300
C2369       C  0.41236126  0.43415760  0.75510392    -0.01900
C2370       C  0.41972637  0.43418540  0.79090221     0.05000
N2371       N  0.41878058  0.44593426  0.82019936     0.67500
H2372       H  0.43397065  0.42296747  0.82583595     0.16400
H2373       H  0.40847111  0.42210594  0.69976517     0.16100
N2374       N  0.42408044  0.39952546  0.70523880     0.75200
O2375       O  0.40446817  0.43846651  0.84258803    -0.38300
O2376       O  0.43410639  0.46178076  0.82866819    -0.38200
O2377       O  0.40890157  0.38363115  0.69642234    -0.38900
O2378       O  0.43842513  0.40728968  0.68295097    -0.39000
C2379       C  0.59023166  0.78698363  0.99684908    -0.11300
C2380       C  0.57385625  0.77141073  0.97919390     0.05700
C2381       C  0.55891271  0.77470161  0.96479104    -0.06600
C2382       C  0.56084118  0.79330889  0.96756993    -0.07300
C2383       C  0.57758698  0.80904785  0.98398467    -0.01900
C2384       C  0.59232299  0.80564633  0.99908151     0.05000
N2385       N  0.61005796  0.82111938  0.01490621     0.67500
H2386       H  0.60199677  0.78492662  0.00796156     0.16400
H2387       H  0.54878899  0.79546180  0.45634922     0.16100
N2388       N  0.54143818  0.75950104  0.44697199     0.75200
O2389       O  0.61146417  0.82322396  0.04963597    -0.38300
O2390       O  0.62550249  0.82948793  0.99536619    -0.38200
O2391       O  0.52522644  0.75071024  0.46417327    -0.38900
O2392       O  0.54221581  0.75821179  0.91140396    -0.39000
C2393       C  0.76269411  0.86704910  0.88431742    -0.11300
C2394       C  0.75021582  0.85364648  0.85741381     0.05700
C2395       C  0.73941452  0.85925915  0.83387346    -0.06600
C2396       C  0.74084046  0.87757992  0.83840544    -0.07300
C2397       C  0.75271277  0.89068122  0.86626808    -0.01900
C2398       C  0.76393252  0.88528897  0.88913861     0.05000
N2399       N  0.77607397  0.89770989  0.91838561     0.67500
H2400       H  0.77110309  0.86311902  0.90283488     0.16400
H2401       H  0.73214723  0.88134519  0.82029725     0.16100
N2402       N  0.72659145  0.84649315  0.80565167     0.75200
O2403       O  0.76912307  0.89512107  0.95077242    -0.38300
O2404       O  0.79455530  0.90760277  0.91379762    -0.38200
O2405       O  0.70813440  0.83752380  0.81092675    -0.38900
O2406       O  0.73313586  0.84793008  0.77314758    -0.39000
C2407       C  0.66429931  0.76185921  0.87420225    -0.11300
C2408       C  0.67875343  0.76278437  0.89869632     0.05700
C2409       C  0.67289853  0.75512673  0.93473960    -0.06600
C2410       C  0.65308766  0.74698115  0.94553768    -0.07300
C2411       C  0.63864411  0.74628071  0.92128355    -0.01900
C2412       C  0.64448640  0.75387352  0.88511178     0.05000
N2413       N  0.63070066  0.75399795  0.85917628     0.67500
H2414       H  0.66844027  0.76779287  0.84654420     0.16400
H2415       H  0.64904505  0.74114544  0.97327335     0.16100
N2416       N  0.68674317  0.75517252  0.96072749     0.75200
O2417       O  0.62884649  0.76898830  0.85687148    -0.38300
O2418       O  0.62420954  0.74153096  0.83330584    -0.38200
O2419       O  0.69316888  0.76770141  0.98649212    -0.38900
O2420       O  0.68886674  0.74034054  0.96301102    -0.39000
C2421       C  0.77993222  0.75771243  0.47743444    -0.11300
C2422       C  0.78261188  0.76722678  0.51170176     0.05700
C2423       C  0.77996402  0.78370575  0.51374869    -0.06600
C2424       C  0.77418997  0.78978864  0.98222654    -0.07300
C2425       C  0.77017606  0.77939644  0.94869487    -0.01900
C2426       C  0.77358389  0.76351866  0.44621046     0.05000
N2427       N  0.77076273  0.75300144  0.41233427     0.67500
H2428       H  0.78214011  0.74523740  0.47496230     0.16400
H2429       H  0.77170487  0.80209254  0.98468509     0.16100
N2430       N  0.78250015  0.79407612  0.54771696     0.75200
O2431       O  0.78512205  0.75841566  0.39030191    -0.38300
O2432       O  0.75587979  0.73601455  0.90906317    -0.38200
O2433       O  0.79833066  0.80996766  0.55332509    -0.38900
O2434       O  0.76820967  0.79022608  0.06769105    -0.39000
C2435       C  0.74550827  0.76181859  0.74021628    -0.11300
C2436       C  0.76014191  0.77656629  0.76251358     0.05700
C2437       C  0.78023486  0.78388311  0.75324172    -0.06600
C2438       C  0.78521197  0.77603017  0.72296301    -0.07300
C2439       C  0.77056624  0.76107025  0.70099441    -0.01900
C2440       C  0.75048190  0.75417793  0.70962595     0.05000
N2441       N  0.73485066  0.73969309  0.68740786     0.67500
H2442       H  0.73002217  0.75613832  0.74641598     0.16400
H2443       H  0.80069853  0.78170392  0.71678349     0.16100
N2444       N  0.79586935  0.79909774  0.77432841     0.75200
O2445       O  0.72594507  0.72211728  0.69797435    -0.38300
O2446       O  0.72708480  0.74504904  0.66277219    -0.38200
O2447       O  0.80537124  0.79478229  0.79709836    -0.38900
O2448       O  0.80313457  0.81659819  0.76382005    -0.39000
C2449       C  0.73335355  0.64631474  0.55639876    -0.11300
C2450       C  0.73875957  0.63491028  0.57796739     0.05700
C2451       C  0.75191998  0.64386865  0.60796308    -0.06600
C2452       C  0.75983574  0.66388187  0.61486920    -0.07300
C2453       C  0.75502602  0.67546808  0.59246437    -0.01900
C2454       C  0.74123164  0.66634612  0.56340965     0.05000
N2455       N  0.73494733  0.67707796  0.54074762     0.67500
H2456       H  0.72302324  0.63969708  0.53366986     0.16400
H2457       H  0.77036529  0.67048087  0.63731071     0.16100
N2458       N  0.75827796  0.63318815  0.63061876     0.75200
O2459       O  0.74298030  0.68324183  0.50960276    -0.38300
O2460       O  0.71870771  0.67632769  0.54773300    -0.38200
O2461       O  0.77479291  0.63441008  0.62430643    -0.38900
O2462       O  0.74975807  0.62636414  0.66114467    -0.39000
C2463       C  0.45902298  0.56207042  0.71612816    -0.11300
C2464       C  0.47515656  0.56210030  0.69859150     0.05700
C2465       C  0.47206108  0.54482879  0.68063336    -0.06600
C2466       C  0.45351761  0.52783219  0.68246166    -0.07300
C2467       C  0.43768611  0.52747737  0.70187971    -0.01900
C2468       C  0.44044365  0.54507356  0.71784267     0.05000
N2469       N  0.42483400  0.54590297  0.73705506     0.67500
H2470       H  0.46092457  0.57520738  0.72958106     0.16400
H2471       H  0.45177661  0.51462690  0.66958916     0.16100
N2472       N  0.48776738  0.54387019  0.66206465     0.75200
O2473       O  0.42334690  0.54351815  0.77169446    -0.38300
O2474       O  0.41561573  0.55322101  0.72115362    -0.38200
O2475       O  0.49667757  0.53634247  0.67837222    -0.38900
O2476       O  0.48961142  0.54635131  0.62746945    -0.39000
C2477       C  0.53410901  0.65959576  0.81687588    -0.11300
C2478       C  0.54790227  0.65412288  0.80505191     0.05700
C2479       C  0.56597171  0.66146668  0.82442010    -0.06600
C2480       C  0.56959269  0.67340010  0.85535743    -0.07300
C2481       C  0.55580411  0.67872955  0.86751877    -0.01900
C2482       C  0.53803172  0.67204603  0.84750635     0.05000
N2483       N  0.52371832  0.67745064  0.85808395     0.67500
H2484       H  0.52025798  0.65431967  0.80211931     0.16400
H2485       H  0.58352972  0.67867129  0.86983846     0.16100
N2486       N  0.58076955  0.65674078  0.81365307     0.75200
O2487       O  0.52427158  0.69223760  0.84345106    -0.38300
O2488       O  0.50833794  0.66530564  0.87511596    -0.38200
O2489       O  0.59607274  0.66941204  0.79713738    -0.38900
O2490       O  0.58073253  0.64212141  0.82790710    -0.39000
C2491       C  0.57190103  0.67217521  0.56705146    -0.11300
C2492       C  0.55973437  0.68014376  0.55875446     0.05700
C2493       C  0.54244455  0.67418573  0.57998542    -0.06600
C2494       C  0.53776115  0.66061500  0.60868273    -0.07300
C2495       C  0.54989426  0.65256269  0.61688394    -0.01900
C2496       C  0.56710739  0.65843473  0.59538474     0.05000
N2497       N  0.57971716  0.65033258  0.60121142     0.67500
H2498       H  0.58510445  0.67628411  0.55080777     0.16400
H2499       H  0.52454148  0.65650112  0.62486552     0.16100
N2500       N  0.52974954  0.68214135  0.57364541     0.75200
O2501       O  0.57673890  0.63541852  0.58293995    -0.38300
O2502       O  0.59597443  0.66032115  0.61789219    -0.38200
O2503       O  0.51359198  0.67186945  0.05723772    -0.38900
O2504       O  0.53275518  0.69726288  0.59119620    -0.39000
C2505       C  0.54360669  0.46519909  0.82782463    -0.11300
C2506       C  0.55823565  0.46701753  0.80275057     0.05700
C2507       C  0.55435130  0.45071950  0.78034174    -0.06600
C2508       C  0.53601316  0.43344192  0.78271333    -0.07300
C2509       C  0.52115109  0.43189501  0.80691077    -0.01900
C2510       C  0.52526409  0.44800602  0.83003386     0.05000
N2511       N  0.51077898  0.44759866  0.85488755     0.67500
H2512       H  0.54616165  0.47741183  0.84541204     0.16400
H2513       H  0.53327350  0.42129988  0.76475118     0.16100
N2514       N  0.56852659  0.45150608  0.75424266     0.75200
O2515       O  0.51097200  0.44315635  0.88836880    -0.38300
O2516       O  0.50112414  0.45589316  0.84572263    -0.38200
O2517       O  0.57825898  0.44306324  0.76168385    -0.38900
O2518       O  0.56783731  0.45632614  0.72121416    -0.39000
C2519       C  0.67019177  0.54185510  0.70705376    -0.11300
C2520       C  0.64974436  0.53211858  0.69996635     0.05700
C2521       C  0.64314700  0.52751929  0.66292335    -0.06600
C2522       C  0.65691879  0.53394238  0.63400958    -0.07300
C2523       C  0.67735979  0.54478671  0.64102293    -0.01900
C2524       C  0.68396231  0.54812053  0.67817366     0.05000
N2525       N  0.70453897  0.55844011  0.68730835     0.67500
H2526       H  0.67565601  0.54526605  0.73521928     0.16400
H2527       H  0.65147468  0.53081937  0.60580431     0.16100
N2528       N  0.62256905  0.51672381  0.65390530     0.75200
O2529       O  0.71287672  0.57650001  0.69453862    -0.38300
O2530       O  0.71292902  0.54889237  0.69642927    -0.38200
O2531       O  0.61399435  0.52568585  0.64227658    -0.38900
O2532       O  0.61433512  0.49842046  0.64968325    -0.39000
C2533       C  0.65424139  0.52912418  0.90659600    -0.11300
C2534       C  0.65047187  0.54298973  0.88957988     0.05700
C2535       C  0.66020754  0.56234797  0.90355204    -0.06600
C2536       C  0.67316248  0.56735518  0.93369598    -0.07300
C2537       C  0.67702554  0.55356734  0.95064551    -0.01900
C2538       C  0.66735996  0.53419736  0.93667571     0.05000
N2539       N  0.67049487  0.51938748  0.95264509     0.67500
H2540       H  0.64703185  0.51421290  0.89648505     0.16400
H2541       H  0.68035097  0.58229168  0.94367646     0.16100
N2542       N  0.65732009  0.57728801  0.88747898     0.75200
O2543       O  0.65890639  0.50851244  0.97754817    -0.38300
O2544       O  0.68155299  0.51431053  0.93624382    -0.38200
O2545       O  0.64624936  0.58244623  0.90357576    -0.38900
O2546       O  0.66911914  0.58815739  0.86281582    -0.39000
C2547       C  0.57242532  0.56360423  0.79148945    -0.11300
C2548       C  0.58674948  0.56384136  0.76745404     0.05700
C2549       C  0.59133024  0.57503196  0.73468722    -0.06600
C2550       C  0.58097711  0.58476352  0.72578561    -0.07300
C2551       C  0.56614519  0.58394262  0.74909647    -0.01900
C2552       C  0.56222193  0.57354556  0.78279906     0.05000
N2553       N  0.54774377  0.57258005  0.80836579     0.67500
H2554       H  0.56877159  0.55532462  0.81696004     0.16400
H2555       H  0.58460877  0.59298738  0.70024902     0.16100
N2556       N  0.60655152  0.57689353  0.71011483     0.75200
O2557       O  0.53050363  0.55795843  0.80766519    -0.38300
O2558       O  0.55328153  0.58373466  0.83630630    -0.38200
O2559       O  0.60186348  0.56715437  0.68035293    -0.38900
O2560       O  0.62378674  0.59131656  0.71371278    -0.39000
C2561       C  0.98225202  0.54970182  0.75028552    -0.11300
C2562       C  0.97645959  0.54969595  0.78718794     0.05700
C2563       C  0.99119651  0.56074924  0.81378827    -0.06600
C2564       C  0.01106971  0.57163695  0.80295684    -0.07300
C2565       C  0.01670916  0.57207270  0.76581326    -0.01900
C2566       C  0.00205068  0.56075122  0.73943227     0.05000
N2567       N  0.00695113  0.56007063  0.70151439     0.67500
H2568       H  0.97131477  0.54129795  0.72935558     0.16400
H2569       H  0.02207302  0.58022904  0.82366765     0.16100
N2570       N  0.98634842  0.56140648  0.85176317     0.75200
O2571       O  0.01152373  0.54749266  0.69131087    -0.38300
O2572       O  0.00269257  0.56896518  0.67744394    -0.38200
O2573       O  0.98954564  0.55151580  0.87534722    -0.38900
O2574       O  0.98337387  0.57496724  0.86267047    -0.39000
C2575       C  0.09871206  0.86993095  0.87011398    -0.11300
C2576       C  0.09787068  0.85338141  0.85348571     0.05700
C2577       C  0.11473323  0.85561190  0.83439647    -0.06600
C2578       C  0.13181641  0.87401346  0.83261381    -0.07300
C2579       C  0.13289579  0.89042972  0.85035455    -0.01900
C2580       C  0.11598487  0.88823253  0.86913566     0.05000
N2581       N  0.11611565  0.90423260  0.88813732     0.67500
H2582       H  0.08602041  0.86861312  0.88506005     0.16400
H2583       H  0.14464480  0.87521509  0.81838056     0.16100
N2584       N  0.11514972  0.83931518  0.81779078     0.75200
O2585       O  0.11019588  0.91443174  0.87149227    -0.38300
O2586       O  0.11751242  0.90515285  0.92300098    -0.38200
O2587       O  0.11422892  0.83748251  0.78299691    -0.38900
O2588       O  0.12089949  0.82963498  0.83672131    -0.39000
C2589       C  0.18323863  0.78668513  0.00738182    -0.11300
C2590       C  0.18323556  0.76979260  0.99481126     0.05700
C2591       C  0.20094664  0.77157200  0.98054466    -0.06600
C2592       C  0.21801190  0.78996670  0.97884574    -0.07300
C2593       C  0.21787357  0.80691363  0.99051710    -0.01900
C2594       C  0.20016624  0.80512989  0.00492859     0.05000
N2595       N  0.19862096  0.82190074  0.01489378     0.67500
H2596       H  0.16972495  0.78576288  0.01775397     0.16400
H2597       H  0.23142624  0.79097189  0.96771863     0.16100
N2598       N  0.20188982  0.75498024  0.96709489     0.75200
O2599       O  0.19275361  0.82954097  0.99100238    -0.38300
O2600       O  0.19856564  0.82607227  0.54848387    -0.38200
O2601       O  0.20141667  0.75203642  0.93262847    -0.38900
O2602       O  0.20770680  0.74627802  0.48818413    -0.39000
C2603       C  0.09012279  0.66944276  0.59643514    -0.11300
C2604       C  0.11015919  0.67949713  0.58608765     0.05700
C2605       C  0.12364321  0.67596321  0.60614854    -0.06600
C2606       C  0.11689553  0.66255788  0.63546604    -0.07300
C2607       C  0.09678584  0.65225702  0.64540988    -0.01900
C2608       C  0.08334347  0.65590223  0.62546185     0.05000
N2609       N  0.06267091  0.64579023  0.63368189     0.67500
H2610       H  0.07944543  0.67177728  0.58141999     0.16400
H2611       H  0.12754747  0.66013580  0.65035786     0.16100
N2612       N  0.14425724  0.68585690  0.59741745     0.75200
O2613       O  0.05560899  0.65399978  0.65369102    -0.38300
O2614       O  0.05112801  0.63097781  0.61467431    -0.38200
O2615       O  0.15611199  0.70037334  0.61674944    -0.38900
O2616       O  0.15094648  0.67754889  0.57672859    -0.39000
C2617       C  0.11936345  0.66198026  0.84090698    -0.11300
C2618       C  0.09908624  0.64976976  0.83366753     0.05700
C2619       C  0.08520598  0.65052397  0.85779516    -0.06600
C2620       C  0.09167176  0.66327439  0.88809997    -0.07300
C2621       C  0.11189148  0.67582303  0.89508589    -0.01900
C2622       C  0.12586529  0.67512942  0.87096108     0.05000
N2623       N  0.14663569  0.68792438  0.87584250     0.67500
H2624       H  0.13023897  0.66171526  0.82259579     0.16400
H2625       H  0.08061475  0.66345175  0.90602608     0.16100
N2626       N  0.06438995  0.63823799  0.85240444     0.75200
O2627       O  0.15686895  0.68165519  0.89147234    -0.38300
O2628       O  0.15520213  0.70371198  0.85787700    -0.38200
O2629       O  0.05518596  0.62278486  0.87116728    -0.38900
O2630       O  0.05478348  0.64498288  0.83597795    -0.39000
C2631       C  0.09265324  0.74775642  0.91075715    -0.11300
C2632       C  0.09300200  0.74539546  0.94929492     0.05700
C2633       C  0.08336465  0.75263648  0.97231830    -0.06600
C2634       C  0.07375978  0.76191997  0.95651071    -0.07300
C2635       C  0.07355343  0.76432328  0.91797897    -0.01900
C2636       C  0.08324129  0.75717604  0.89505418     0.05000
N2637       N  0.08460948  0.76023155  0.85592217     0.67500
H2638       H  0.10005665  0.74252069  0.89239119     0.16400
H2639       H  0.06651283  0.76741196  0.97469004     0.16100
N2640       N  0.08364259  0.75131038  0.01174600     0.75200
O2641       O  0.09885453  0.77565341  0.84285018    -0.38300
O2642       O  0.07411115  0.74613470  0.83448991    -0.38200
O2643       O  0.09594949  0.76601848  0.03013245    -0.38900
O2644       O  0.06882686  0.73780694  0.02804149    -0.39000
C2645       C  0.88455478  0.76091174  0.60123639    -0.11300
C2646       C  0.88700596  0.74912474  0.62739414     0.05700
C2647       C  0.87124199  0.73770107  0.65172905    -0.06600
C2648       C  0.85326282  0.73751937  0.64829609    -0.07300
C2649       C  0.85045250  0.74858459  0.62097854    -0.01900
C2650       C  0.86655034  0.76075730  0.59783679     0.05000
N2651       N  0.86494632  0.77294196  0.57045913     0.67500
H2652       H  0.89647371  0.76991362  0.58251913     0.16400
H2653       H  0.84131752  0.72830551  0.66678921     0.16100
N2654       N  0.87314786  0.72618966  0.68021668     0.75200
O2655       O  0.87004935  0.79041336  0.57862422    -0.38300
O2656       O  0.86305338  0.76787623  0.53683754    -0.38200
O2657       O  0.87825077  0.73331052  0.71234880    -0.38900
O2658       O  0.86573053  0.70799246  0.67549123    -0.39000
C2659       C  0.99588215  0.78848448  0.52836826    -0.11300
C2660       C  0.97674450  0.77243623  0.52332075     0.05700
C2661       C  0.97095267  0.76433288  0.48747202    -0.06600
C2662       C  0.98456411  0.77132057  0.95832578    -0.07300
C2663       C  0.00408068  0.78648923  0.96385008    -0.01900
C2664       C  0.00950891  0.79566699  0.49907797     0.05000
N2665       N  0.02902467  0.81142188  0.50631689     0.67500
H2666       H  0.00055961  0.79510499  0.55546535     0.16400
H2667       H  0.97997277  0.76430675  0.93151585     0.16100
N2668       N  0.95182589  0.74789721  0.48044821     0.75200
O2669       O  0.03200568  0.82869501  0.50745154    -0.38300
O2670       O  0.04163946  0.80775130  0.02027293    -0.38200
O2671       O  0.93864044  0.75058528  0.46594304    -0.38900
O2672       O  0.94971028  0.73084566  0.98029196    -0.39000
C2673       C  0.98993142  0.75459592  0.72487285    -0.11300
C2674       C  0.97946020  0.76438368  0.71657098     0.05700
C2675       C  0.98258064  0.78041055  0.73906066    -0.06600
C2676       C  0.99591712  0.78624475  0.76882992    -0.07300
C2677       C  0.00646646  0.77650466  0.77695819    -0.01900
C2678       C  0.00329012  0.76046075  0.75451840     0.05000
N2679       N  0.01376542  0.75012194  0.76068109     0.67500
H2680       H  0.98789421  0.74233250  0.70815307     0.16400
H2681       H  0.99800138  0.79850848  0.78560348     0.16100
N2682       N  0.97255785  0.79112872  0.73211023     0.75200
O2683       O  0.00572817  0.73460714  0.77950756    -0.38300
O2684       O  0.02836381  0.75369100  0.74036335    -0.38200
O2685       O  0.95895014  0.78918021  0.75370505    -0.38900
O2686       O  0.98023730  0.80553497  0.71037245    -0.39000
C2687       C  0.77076613  0.55369059  0.54642742    -0.11300
C2688       C  0.77018225  0.56974324  0.53097795     0.05700
C2689       C  0.78784089  0.58536683  0.51646097    -0.06600
C2690       C  0.80561403  0.58511005  0.51959319    -0.07300
C2691       C  0.80634839  0.56955300  0.53693454    -0.01900
C2692       C  0.78854753  0.55344095  0.54946171     0.05000
N2693       N  0.78816497  0.53666632  0.56529534     0.67500
H2694       H  0.75739875  0.54138018  0.55721801     0.16400
H2695       H  0.81905703  0.59755557  0.50937566     0.16100
N2696       N  0.78823874  0.60191587  0.49946004     0.75200
O2697       O  0.78827166  0.53514236  0.60006577    -0.38300
O2698       O  0.78325216  0.52181314  0.04513564    -0.38200
O2699       O  0.79517709  0.61781827  0.51720215    -0.38900
O2700       O  0.78602094  0.60193295  0.46484196    -0.39000
C2701       C  0.86641825  0.54205981  0.67883440    -0.11300
C2702       C  0.88051699  0.55239422  0.65124443     0.05700
C2703       C  0.89985892  0.55535607  0.65544376    -0.06600
C2704       C  0.90481802  0.54865574  0.68715806    -0.07300
C2705       C  0.89088008  0.53864510  0.71507846    -0.01900
C2706       C  0.87136347  0.53511897  0.71046958     0.05000
N2707       N  0.85653168  0.52513111  0.73798132     0.67500
H2708       H  0.85147996  0.53958947  0.67623331     0.16400
H2709       H  0.91978193  0.55117441  0.68964202     0.16100
N2710       N  0.91468133  0.56490795  0.62768608     0.75200
O2711       O  0.85370232  0.53497242  0.76241940    -0.38300
O2712       O  0.84339042  0.50756896  0.73239300    -0.38200
O2713       O  0.92867749  0.58207294  0.63344726    -0.38900
O2714       O  0.91616536  0.55488673  0.60183261    -0.39000
C2715       C  0.90150959  0.56402875  0.95388008    -0.11300
C2716       C  0.88154170  0.55380612  0.96458637     0.05700
C2717       C  0.86841706  0.53643770  0.94550227    -0.06600
C2718       C  0.87533173  0.52996182  0.91596008    -0.07300
C2719       C  0.89525975  0.54030737  0.90501170    -0.01900
C2720       C  0.90848454  0.55741063  0.92470591     0.05000
N2721       N  0.92908151  0.56820637  0.91587388     0.67500
H2722       H  0.91192292  0.57718368  0.96849662     0.16400
H2723       H  0.86492030  0.51679567  0.90137684     0.16100
N2724       N  0.84794736  0.52533011  0.95506575     0.75200
O2725       O  0.93578988  0.58404667  0.89824398    -0.38300
O2726       O  0.94093778  0.56417461  0.93213974    -0.38200
O2727       O  0.83546039  0.52748358  0.93645613    -0.38900
O2728       O  0.84208828  0.51037382  0.97513329    -0.39000
C2729       C  0.90236864  0.66780576  0.62451105    -0.11300
C2730       C  0.91605536  0.68091206  0.59883063     0.05700
C2731       C  0.91988639  0.67326515  0.56635345    -0.06600
C2732       C  0.90997743  0.65301465  0.56018576    -0.07300
C2733       C  0.89597799  0.63993870  0.58552412    -0.01900
C2734       C  0.89225962  0.64759524  0.61810664     0.05000
N2735       N  0.87775031  0.63523780  0.64445518     0.67500
H2736       H  0.89900178  0.67326489  0.64945849     0.16400
H2737       H  0.91314397  0.64755259  0.53502083     0.16100
N2738       N  0.93351270  0.68574930  0.53893873     0.75200
O2739       O  0.88325857  0.63083907  0.67398536    -0.38300
O2740       O  0.86044748  0.63267428  0.64232886    -0.38200
O2741       O  0.95079831  0.68820074  0.53823056    -0.38900
O2742       O  0.92701241  0.69032067  0.51094908    -0.39000
C2743       C  0.77380624  0.20052634  0.55274193    -0.11300
C2744       C  0.77078357  0.18588725  0.52695680     0.05700
C2745       C  0.78544459  0.19004074  0.49984619    -0.06600
C2746       C  0.80297423  0.20804400  0.50026593    -0.07300
C2747       C  0.80651152  0.22225164  0.52733984    -0.01900
C2748       C  0.79141863  0.21855072  0.55324084     0.05000
N2749       N  0.79379690  0.23260941  0.58085391     0.67500
H2750       H  0.76269622  0.19779511  0.57355705     0.16400
H2751       H  0.81417508  0.21059876  0.47976378     0.16100
N2752       N  0.78362544  0.17620078  0.97189392     0.75200
O2753       O  0.78686301  0.24382000  0.57499056    -0.38300
O2754       O  0.79829372  0.23061415  0.61349319    -0.38200
O2755       O  0.77842121  0.17782668  0.93961437    -0.38900
O2756       O  0.79067888  0.16531290  0.47736424    -0.39000
C2757       C  0.89969289  0.12027081  0.62840452    -0.11300
C2758       C  0.90019896  0.13645951  0.64598811     0.05700
C2759       C  0.88296225  0.13380583  0.66425814    -0.06600
C2760       C  0.86572339  0.11554024  0.66348029    -0.07300
C2761       C  0.86491398  0.09958010  0.64443477    -0.01900
C2762       C  0.88231361  0.10201663  0.62724885     0.05000
N2763       N  0.88250594  0.08644135  0.60721405     0.67500
H2764       H  0.91269730  0.12190530  0.61418354     0.16400
H2765       H  0.85262745  0.11410755  0.67699337     0.16100
N2766       N  0.88230355  0.14961129  0.68248302     0.75200
O2767       O  0.87995259  0.08532507  0.57258069    -0.38300
O2768       O  0.88965005  0.07689404  0.62230624    -0.38200
O2769       O  0.87426136  0.15806251  0.66635286    -0.38900
O2770       O  0.88540279  0.15193938  0.71691789    -0.39000
C2771       C  0.92311597  0.23267116  0.55912941    -0.11300
C2772       C  0.92136776  0.22677986  0.59626929     0.05700
C2773       C  0.90878814  0.22987883  0.62003766    -0.06600
C2774       C  0.89851917  0.23892053  0.60648425    -0.07300
C2775       C  0.90024870  0.24479563  0.56930056    -0.01900
C2776       C  0.91273019  0.24154413  0.54548590     0.05000
N2777       N  0.91531677  0.24733702  0.50750199     0.67500
H2778       H  0.93264943  0.23041122  0.54033678     0.16400
H2779       H  0.88884720  0.24102377  0.62517493     0.16100
N2780       N  0.90559341  0.22327545  0.65754773     0.75200
O2781       O  0.92875930  0.26284075  0.99688455    -0.38300
O2782       O  0.90563155  0.23332526  0.98262271    -0.38200
O2783       O  0.91345380  0.23555083  0.68348422    -0.38900
O2784       O  0.89187408  0.20620525  0.66484100    -0.39000
C2785       C  0.21521500  0.40982873  0.51435318    -0.11300
C2786       C  0.23053923  0.42473067  0.99355570     0.05700
C2787       C  0.22721917  0.43900538  0.97665939    -0.06600
C2788       C  0.20839297  0.43716933  0.97807628    -0.07300
C2789       C  0.19266509  0.42149149  0.99663809    -0.01900
C2790       C  0.19649189  0.40814574  0.51622655     0.05000
N2791       N  0.18142247  0.39239431  0.53708787     0.67500
H2792       H  0.21747437  0.39896102  0.52827455     0.16400
H2793       H  0.20600015  0.44782699  0.96366002     0.16100
N2794       N  0.24257018  0.45524782  0.95725664     0.75200
O2795       O  0.17231642  0.37549385  0.52295103    -0.38300
O2796       O  0.18036462  0.39441573  0.57156096    -0.38200
O2797       O  0.24282293  0.45500223  0.92231318    -0.38900
O2798       O  0.25272532  0.47125496  0.97418907    -0.39000
C2799       C  0.12409989  0.25882611  0.83722773    -0.11300
C2800       C  0.10989787  0.24512480  0.86155316     0.05700
C2801       C  0.11429266  0.23207000  0.88041539    -0.06600
C2802       C  0.13296716  0.23378213  0.87653524    -0.07300
C2803       C  0.14760367  0.24829543  0.85402065    -0.01900
C2804       C  0.14273032  0.26044307  0.83314384     0.05000
N2805       N  0.15647817  0.27464956  0.80792537     0.67500
H2806       H  0.12093801  0.26867280  0.82171426     0.16400
H2807       H  0.13618973  0.22407471  0.89237855     0.16100
N2808       N  0.10031822  0.21739135  0.90464761     0.75200
O2809       O  0.15611095  0.27003664  0.77430306    -0.38300
O2810       O  0.16545140  0.29248613  0.81708368    -0.38200
O2811       O  0.09130365  0.19977293  0.89407305    -0.38900
O2812       O  0.10035413  0.22128809  0.93859452    -0.39000
C2813       C  0.99572425  0.21505632  0.96650770    -0.11300
C2814       C  0.01509016  0.21841894  0.97091215     0.05700
C2815       C  0.02046030  0.21377278  0.50507859    -0.06600
C2816       C  0.00702845  0.20723265  0.53464325    -0.07300
C2817       C  0.98802484  0.20487377  0.53071677    -0.01900
C2818       C  0.98226701  0.20854354  0.49596011     0.05000
N2819       N  0.96314743  0.20626045  0.99015351     0.67500
H2820       H  0.99114590  0.21832517  0.94048540     0.16400
H2821       H  0.01160919  0.20427426  0.56096737     0.16100
N2822       N  0.03966580  0.21609852  0.51078819     0.75200
O2823       O  0.96104843  0.22104349  0.99424010    -0.38300
O2824       O  0.95012017  0.19216528  0.47312206    -0.38200
O2825       O  0.05244344  0.23090586  0.02913459    -0.38900
O2826       O  0.04237136  0.20180967  0.50478037    -0.39000
C2827       C  0.01488885  0.24226672  0.76443385    -0.11300
C2828       C  0.01923897  0.22903967  0.78240447     0.05700
C2829       C  0.01065636  0.20970652  0.76853587    -0.06600
C2830       C  0.99766856  0.20393287  0.73830380    -0.07300
C2831       C  0.99294513  0.21701644  0.72089206    -0.01900
C2832       C  0.00201019  0.23652489  0.73398471     0.05000
N2833       N  0.99839916  0.25077391  0.71683704     0.67500
H2834       H  0.02142079  0.25724092  0.77418476     0.16400
H2835       H  0.99114776  0.18895437  0.72857874     0.16100
N2836       N  0.01473060  0.19559294  0.78486921     0.75200
O2837       O  0.98509623  0.25383105  0.72964885    -0.38300
O2838       O  0.01101641  0.26294006  0.69466970    -0.38200
O2839       O  0.00206925  0.18272232  0.80599106    -0.38900
O2840       O  0.02844605  0.19326514  0.77175548    -0.39000
C2841       C  0.09351066  0.32501772  0.89335281    -0.11300
C2842       C  0.08300205  0.31021800  0.91941212     0.05700
C2843       C  0.08236571  0.31563566  0.95653808    -0.06600
C2844       C  0.09213633  0.33542168  0.96672710    -0.07300
C2845       C  0.10289803  0.35022854  0.94081127    -0.01900
C2846       C  0.10355744  0.34479988  0.90364919     0.05000
N2847       N  0.11474120  0.35903473  0.87608109     0.67500
H2848       H  0.09439069  0.32122599  0.86479163     0.16400
H2849       H  0.09132222  0.33915620  0.99535037     0.16100
N2850       N  0.07167651  0.30134070  0.98430426     0.75200
O2851       O  0.13225450  0.36299603  0.86943225    -0.38300
O2852       O  0.10592494  0.36416980  0.85328430    -0.38200
O2853       O  0.08093940  0.29611316  0.00582041    -0.38900
O2854       O  0.05450873  0.29777893  0.99299582    -0.39000
C2855       C  0.90181428  0.43173991  0.83340535    -0.11300
C2856       C  0.89772958  0.42261186  0.79850728     0.05700
C2857       C  0.89195718  0.43058710  0.76934161    -0.06600
C2858       C  0.89202488  0.44821375  0.77478631    -0.07300
C2859       C  0.89790591  0.45828606  0.80877933    -0.01900
C2860       C  0.90193541  0.44936930  0.83882910     0.05000
N2861       N  0.90688884  0.45825943  0.87469665     0.67500
H2862       H  0.90573294  0.42556092  0.85651195     0.16400
H2863       H  0.88857041  0.45460154  0.75140158     0.16100
N2864       N  0.88753707  0.42193981  0.73324147     0.75200
O2865       O  0.89347815  0.45308615  0.89880114    -0.38300
O2866       O  0.92477642  0.46732335  0.88475187    -0.38200
O2867       O  0.86973875  0.41220072  0.72285464    -0.38900
O2868       O  0.90115925  0.42761834  0.70945704    -0.39000
C2869       C  0.90321865  0.34454069  0.65554256    -0.11300
C2870       C  0.89013882  0.33895201  0.68568294     0.05700
C2871       C  0.87164438  0.32163657  0.68300347    -0.06600
C2872       C  0.86692948  0.31005919  0.65097836    -0.07300
C2873       C  0.88042977  0.31525463  0.62150300    -0.01900
C2874       C  0.89860135  0.33294406  0.62375980     0.05000
N2875       N  0.91260179  0.33944462  0.59414421     0.67500
H2876       H  0.91735745  0.35797740  0.65671237     0.16400
H2877       H  0.85292172  0.29648522  0.64991358     0.16100
N2878       N  0.85801860  0.31491254  0.71324058     0.75200
O2879       O  0.91314291  0.35190157  0.57159396    -0.38300
O2880       O  0.92706014  0.33644693  0.59580044    -0.38200
O2881       O  0.84288288  0.31682793  0.71192163    -0.38900
O2882       O  0.85878441  0.30347549  0.73671371    -0.39000
C2883       C  0.89921121  0.32109733  0.87580762    -0.11300
C2884       C  0.89433119  0.33603842  0.87607506     0.05700
C2885       C  0.88310475  0.33705050  0.90589021    -0.06600
C2886       C  0.87711409  0.32337474  0.93446851    -0.07300
C2887       C  0.88211939  0.30856474  0.93440633    -0.01900
C2888       C  0.89313274  0.30734455  0.90444623     0.05000
N2889       N  0.89753746  0.29180292  0.90177578     0.67500
H2890       H  0.90750366  0.31983127  0.85286957     0.16400
H2891       H  0.86887894  0.32471946  0.95743234     0.16100
N2892       N  0.87829869  0.35231013  0.90853911     0.75200
O2893       O  0.88559123  0.27620723  0.88517928    -0.38300
O2894       O  0.91438135  0.29473818  0.40839668    -0.38200
O2895       O  0.86111759  0.34874098  0.89994843    -0.38900
O2896       O  0.88929900  0.36741437  0.92735823    -0.39000
C2897       C  0.08672994  0.53320882  0.69374606    -0.11300
C2898       C  0.09360629  0.52790555  0.72515132     0.05700
C2899       C  0.10208466  0.54161588  0.75439684    -0.06600
C2900       C  0.10183241  0.55928299  0.75314322    -0.07300
C2901       C  0.09352428  0.56388153  0.72294581    -0.01900
C2902       C  0.08681724  0.55101087  0.69219520     0.05000
N2903       N  0.07982228  0.55559533  0.65925147     0.67500
H2904       H  0.08077878  0.52327870  0.67036852     0.16400
H2905       H  0.10749007  0.56908729  0.77674689     0.16100
N2906       N  0.11047189  0.53768301  0.78613875     0.75200
O2907       O  0.09189160  0.56471039  0.63355070    -0.38300
O2908       O  0.06149474  0.54694208  0.65258071    -0.38200
O2909       O  0.12897427  0.54478769  0.78796555    -0.38900
O2910       O  0.10017105  0.53092008  0.81501733    -0.39000
C2911       C  0.12368209  0.45561351  0.83009757    -0.11300
C2912       C  0.10348617  0.44952975  0.82677461     0.05700
C2913       C  0.09032708  0.43732758  0.85435591    -0.06600
C2914       C  0.09741456  0.43133263  0.88405405    -0.07300
C2915       C  0.11752052  0.43701441  0.88718679    -0.01900
C2916       C  0.13078166  0.44938359  0.85974621     0.05000
N2917       N  0.15137098  0.45547209  0.86090235     0.67500
H2918       H  0.13400631  0.46491957  0.80912062     0.16400
H2919       H  0.08689598  0.42195629  0.90471379     0.16100
N2920       N  0.06970898  0.43110434  0.85323183     0.75200
O2921       O  0.15770925  0.44624087  0.84196785    -0.38300
O2922       O  0.16345393  0.47240723  0.87261362    -0.38200
O2923       O  0.05766861  0.41398239  0.84231704    -0.38900
O2924       O  0.06337646  0.44055325  0.87148111    -0.39000
C2925       C  0.09030651  0.42690153  0.62600731    -0.11300
C2926       C  0.10195431  0.44658544  0.63687951     0.05700
C2927       C  0.11965553  0.45850452  0.61726808    -0.06600
C2928       C  0.12510809  0.45074694  0.58741732    -0.07300
C2929       C  0.11344619  0.43108157  0.57648080    -0.01900
C2930       C  0.09592197  0.41905910  0.59650775     0.05000
N2931       N  0.08370815  0.39877288  0.58782459     0.67500
H2932       H  0.07682807  0.41737258  0.64078184     0.16400
H2933       H  0.13860967  0.46028817  0.57271392     0.16100
N2934       N  0.13229367  0.47859448  0.62686158     0.75200
O2935       O  0.08681305  0.38636399  0.60394997    -0.38300
O2936       O  0.06751485  0.39309660  0.57113885    -0.38200
O2937       O  0.14777333  0.48339370  0.64543211    -0.38900
O2938       O  0.13062317  0.49160851  0.60963781    -0.39000
C2939       C  0.00467630  0.43021284  0.72324344    -0.11300
C2940       C  0.01775775  0.43597975  0.75342403     0.05700
C2941       C  0.00979955  0.43025816  0.78945125    -0.06600
C2942       C  0.98928731  0.41885199  0.79440885    -0.07300
C2943       C  0.97624053  0.41301035  0.76418321    -0.01900
C2944       C  0.98417683  0.41892200  0.72822823     0.05000
N2945       N  0.97176309  0.41308524  0.69618131     0.67500
H2946       H  0.01036359  0.43433064  0.69538015     0.16400
H2947       H  0.98357536  0.41451126  0.82220408     0.16100
N2948       N  0.02224051  0.43503847  0.82129549     0.75200
O2949       O  0.96794242  0.42519654  0.68084190    -0.38300
O2950       O  0.96842129  0.39778784  0.67888619    -0.38200
O2951       O  0.02593259  0.44998852  0.84019084    -0.38900
O2952       O  0.02490529  0.42194593  0.83559929    -0.39000
loop_ 
_geom_bond_atom_site_label_1 
_geom_bond_atom_site_label_2 
_geom_bond_distance 
_geom_bond_site_symmetry_2 
_ccdc_geom_bond_type 
O1            C4   1.265       .  A
O1           Cd6   2.479       .  S
C2           O11   1.265       .  A
C2            O7   1.269       .  A
C2         C1464   1.488       .  S
O3            C9   1.267       .  A
O3           Cd6   2.478       .  S
C4           O12   1.265       .  A
C4         C1450   1.492       .  S
C5           O10   1.264       .  A
C5            O8   1.265       .  A
C5         C1422   1.489       .  S
Cd6          O13   2.435       .  S
Cd6          O12   2.505       .  S
Cd6          O11   2.474       .  S
Cd6           O7   2.470       .  S
Cd6          O10   2.492       .  S
Cd6           O8   2.463       .  S
C9           O13   1.262       .  A
C9         C1436   1.478       .  S
O14          C17   1.266       .  A
O14         Cd19   2.471       .  S
C15          O24   1.263       .  A
C15          O20   1.268       .  A
C15        C1467   1.486       .  S
O16          C22   1.266       .  A
O16         Cd19   2.502       .  S
C17          O25   1.264       .  A
C17        C1408   1.482       .  S
C18          O23   1.266       .  A
C18          O21   1.263       .  A
C18        C1380   1.480       .  S
Cd19         O26   2.408       .  S
Cd19         O25   2.459       .  S
Cd19         O24   2.458       .  S
Cd19         O20   2.482       .  S
Cd19         O23   2.487       .  S
Cd19         O21   2.422       .  S
C22          O26   1.262       .  A
C22        C1394   1.478       .  S
O27          C30   1.266       .  A
O27         Cd32   2.465       .  S
C28          O37   1.265       .  A
C28          O33   1.264       .  A
C28        C1366   1.485       .  S
O29          C35   1.267       .  A
O29         Cd32   2.483       .  S
C30          O38   1.266       .  A
C30        C1352   1.490       .  S
C31          O36   1.265       .  A
C31          O34   1.263       .  A
C31        C1324   1.485       .  S
Cd32         O39   2.427       .  S
Cd32         O38   2.488       .  S
Cd32         O37   2.470       .  S
Cd32         O33   2.484       .  S
Cd32         O36   2.486       .  S
Cd32         O34   2.442       .  S
C35          O39   1.266       .  A
C35        C1338   1.483       .  S
O40          C43   1.266       .  A
O40         Cd45   2.460       .  S
C41          O50   1.266       .  A
C41          O46   1.265       .  A
C41        C1439   1.484       .  S
O42          C48   1.267       .  A
O42         Cd45   2.463       .  S
C43        O1527   1.264       .  A
C43        C1313   1.485       .  S
C44          O49   1.265       .  A
C44          O47   1.266       .  A
C44        C1453   1.492       .  S
Cd45         O52   2.473       .  S
Cd45         O50   2.496       .  S
Cd45         O46   2.417       .  S
Cd45       O1527   2.466       .  S
Cd45       O1525   2.496       .  S
Cd45       O1523   2.468       .  S
O47       Cd1521   2.468   1_554  S
C48          O52   1.264       .  A
C48        C1369   1.487       .  S
O49       Cd1521   2.497   1_554  S
O51        C1519   1.264   1_554  A
O51       Cd1521   2.466   1_554  S
O53          C56   1.267       .  A
O53         Cd58   2.481       .  S
C54          O63   1.263       .  A
C54          O59   1.267       .  A
C54        C1296   1.478       .  S
O55          C61   1.265       .  A
O55         Cd58   2.477       .  S
C56          O64   1.267       .  A
C56        C1355   1.489       .  S
C57          O62   1.266       .  A
C57          O60   1.262       .  A
C57        C1282   1.486       .  S
Cd58         O65   2.459       .  S
Cd58         O64   2.451       .  S
Cd58         O63   2.417       .  S
Cd58         O59   2.478       .  S
Cd58         O62   2.478       .  S
Cd58         O60   2.458       .  S
C61          O65   1.265       .  A
C61        C1341   1.479       .  S
O66          C69   1.264       .  A
O66       Cd1547   2.477       .  S
C67          O76   1.263       .  A
C67          O72   1.264       .  A
C67        C1299   1.481       .  S
O68          C74   1.265       .  A
O68         Cd71   2.445       .  S
C69        O1553   1.265       .  A
C69        C1411   1.479       .  S
C70          O75   1.262       .  A
C70          O73   1.265       .  A
C70        C1271   1.482       .  S
Cd71         O78   2.460       .  S
Cd71         O77   2.443   1_554  S
Cd71         O76   2.444       .  S
Cd71         O72   2.475       .  S
Cd71         O75   2.479       .  S
Cd71         O73   2.444       .  S
Cd71       O1542   2.476   1_554  S
C74          O78   1.266       .  A
C74        C1397   1.480       .  S
O77        C1545   1.265       .  A
O79          C82   1.266       .  A
O79         Cd84   2.460       .  S
C80          O85   1.265       .  A
C80        O1565   1.265       .  A
C80        C1240   1.480       .  S
O81          C87   1.267       .  A
O81         Cd84   2.469       .  S
C82          O90   1.265       .  A
C82        C1257   1.487       .  S
C83          O88   1.267       .  A
C83          O86   1.265       .  A
C83        C1215   1.482       .  S
Cd84         O91   2.442       .  S
Cd84         O90   2.473       .  S
Cd84         O89   2.478       .  S
Cd84         O88   2.473       .  S
Cd84         O86   2.440       .  S
Cd84       O1561   2.438       .  S
O85       Cd1560   2.438       .  S
C87          O91   1.263       .  A
C87        C1226   1.483       .  S
O89        C1556   1.265   1_554  A
O92          C95   1.266       .  A
O92         Cd97   2.495       .  S
C93         O102   1.265       .  A
C93          O98   1.264       .  A
C93        C1254   1.486       .  S
O94         C100   1.265       .  A
O94         Cd97   2.475       .  S
C95         O103   1.265       .  A
C95        C1198   1.489       .  S
C96         O101   1.265       .  A
C96          O99   1.266       .  A
C96        C1184   1.485       .  S
Cd97        O104   2.463       .  S
Cd97        O103   2.450       .  S
Cd97        O102   2.459       .  S
Cd97         O98   2.486       .  S
Cd97        O101   2.467       .  S
Cd97         O99   2.462       .  S
C100        O104   1.262       .  A
C100       C1170   1.484       .  S
O105        C108   1.268       .  A
O105       Cd110   2.517       .  S
C106        O115   1.265       .  A
C106        O111   1.265       .  A
C106       C1128   1.488       .  S
O107        C113   1.266       .  A
O107       Cd110   2.503       .  S
C108        O116   1.264       .  A
C108       C1156   1.488       .  S
C109        O114   1.265       .  A
C109       O1588   1.265       .  A
C109       C1114   1.481       .  S
Cd110       O117   2.432       .  S
Cd110       O116   2.434       .  S
Cd110       O114   2.468       .  S
Cd110      O1591   2.496       .  S
Cd110      O1587   2.463       .  S
Cd110      O1588   2.438       .  S
O111      Cd1586   2.463   1_554  S
O112       C1585   1.265   1_554  A
O112      Cd1586   2.438   1_554  S
C113        O117   1.265       .  A
C113       C1145   1.487       .  S
O115      Cd1586   2.495   1_554  S
O118        C121   1.266       .  A
O118       Cd123   2.487       .  S
C119        O128   1.266       .  A
C119        O124   1.264       .  A
C119       C1159   1.483       .  S
O120        C126   1.266       .  A
O120       Cd123   2.464       .  S
C121        O129   1.266       .  A
C121       C1201   1.489       .  S
C122        O127   1.267       .  A
C122        O125   1.265       .  A
C122       C1187   1.484       .  S
Cd123       O130   2.465       .  S
Cd123       O129   2.465       .  S
Cd123       O128   2.472       .  S
Cd123       O124   2.452       .  S
Cd123       O127   2.507       .  S
Cd123       O125   2.427       .  S
C126        O130   1.263       .  A
C126       C1100   1.485       .  S
O131        C134   1.264       .  A
O131       Cd136   2.453       .  S
C132        O141   1.267       .  A
C132        O137   1.266       .  A
C132       C1086   1.486       .  S
O133        C139   1.263       .  A
O133       Cd136   2.446       .  S
C134        O142   1.265       .  A
C134       C1243   1.480       .  S
C135        O140   1.263       .  A
C135        O138   1.265       .  A
C135       C1229   1.482       .  S
Cd136       O143   2.482       .  S
Cd136       O142   2.442       .  S
Cd136       O141   2.488       .  S
Cd136       O137   2.438       .  S
Cd136       O140   2.428       .  S
Cd136       O138   2.511       .  S
C139        O143   1.264       .  A
C139       C1383   1.482       .  S
O144        C147   1.268       .  A
O144       Cd149   2.493       .  S
C145        O154   1.264       .  A
C145        O150   1.266       .  A
C145       C1425   1.489       .  S
O146        C152   1.264       .  A
O146       Cd149   2.451       .  S
C147        O155   1.264       .  A
C147       C1142   1.484       .  S
C148        O153   1.265       .  A
C148        O151   1.265       .  A
C148       C1131   1.490       .  S
Cd149       O156   2.478       .  S
Cd149       O155   2.447       .  S
Cd149       O154   2.476       .  S
Cd149       O150   2.479       .  S
Cd149       O153   2.485       .  S
Cd149       O151   2.469       .  S
C152        O156   1.267       .  A
C152       C1089   1.483       .  S
O157        C160   1.265       .  A
O157       Cd162   2.480       .  S
C158        O167   1.263       .  A
C158        O163   1.264       .  A
C158       C1072   1.487       .  S
O159        C165   1.266       .  A
O159       Cd162   2.439       .  S
C160        O168   1.267       .  A
C160       C1058   1.492       .  S
C161        O166   1.265       .  A
C161        O164   1.264       .  A
C161       C1030   1.489       .  S
Cd162       O169   2.475       .  S
Cd162       O168   2.484       .  S
Cd162       O167   2.484       .  S
Cd162       O163   2.475       .  S
Cd162       O166   2.505       .  S
Cd162       O164   2.452       .  S
C165        O169   1.266       .  A
C165       C1044   1.484       .  S
O170        C173   1.266       .  A
O170       Cd175   2.495       .  S
C171        O180   1.265       .  A
C171        O176   1.268       .  A
C171       C1075   1.486       .  S
O172        C178   1.266       .  A
O172       Cd175   2.473       .  S
C173        O181   1.264       .  A
C173       C1019   1.490       .  S
C174        O179   1.266       .  A
C174        O177   1.265       .  A
C174        C988   1.486       .  S
Cd175       O182   2.445       .  S
Cd175       O181   2.465       .  S
Cd175       O180   2.470       .  S
Cd175       O176   2.454       .  S
Cd175       O179   2.457       .  S
Cd175       O177   2.482       .  S
C178        O182   1.264       .  A
C178       C1002   1.481       .  S
O183        C186   1.265       .  A
O183       Cd188   2.460       .  S
C184        O193   1.263       .  A
C184        O189   1.263       .  A
C184       C1047   1.484       .  S
O185        C191   1.266       .  A
O185       Cd188   2.471       .  S
C186        O194   1.263       .  A
C186       C1212   1.485       .  S
C187        O192   1.267       .  A
C187       O1666   1.268       .  A
C187       C1061   1.492       .  S
Cd188       O195   2.469       .  S
Cd188       O194   2.475       .  S
Cd188       O193   2.452       .  S
Cd188       O189   2.484       .  S
Cd188       O190   2.506   1_554  S
Cd188      O1668   2.446   1_554  S
O190       C1663   1.268       .  A
C191        O195   1.263       .  A
C191        C974   1.485       .  S
O192      Cd1664   2.447       .  S
O196        C199   1.266       .  A
O196       Cd201   2.480       .  S
C197        O206   1.265       .  A
C197        O202   1.264       .  A
C197        C977   1.486       .  S
O198        C204   1.265       .  A
O198       Cd201   2.462       .  S
C199        O207   1.265       .  A
C199        C963   1.485       .  S
C200        O205   1.265       .  A
C200        O203   1.263       .  A
C200       C1173   1.487       .  S
Cd201       O208   2.436       .  S
Cd201       O207   2.445       .  S
Cd201       O206   2.460       .  S
Cd201       O202   2.489       .  S
Cd201       O205   2.502       .  S
Cd201       O203   2.450       .  S
C204        O208   1.266       .  A
C204        C946   1.482       .  S
O209        C212   1.265       .  A
O209       Cd214   2.485       .  S
C210        O219   1.265       .  A
C210        O215   1.264       .  A
C210        C932   1.487       .  S
O211        C217   1.266       .  A
O211       Cd214   2.463       .  S
C212        O220   1.265       .  A
C212        C960   1.484       .  S
C213        O218   1.265       .  A
C213        O216   1.264       .  A
C213        C918   1.488       .  S
Cd214       O221   2.452       .  S
Cd214       O220   2.446       .  S
Cd214       O219   2.477       .  S
Cd214       O215   2.482       .  S
Cd214       O218   2.464       .  S
Cd214       O216   2.487       .  S
C217        O221   1.267       .  A
C217        C949   1.480       .  S
O222        C225   1.267       .  A
O222       Cd227   2.458       .  S
C223        O228   1.264       .  A
C223       O1708   1.267       .  A
C223       C1016   1.488       .  S
O224        C230   1.268       .  A
O224       Cd227   2.494       .  S
C225        O233   1.266       .  A
C225        C935   1.490       .  S
C226        O231   1.268       .  A
C226        O229   1.262       .  A
C226       C1005   1.479       .  S
Cd227       O233   2.487       .  S
Cd227       O232   2.513       .  S
Cd227       O231   2.514       .  S
Cd227       O229   2.391       .  S
Cd227      O1710   2.426       .  S
Cd227      O1704   2.453       .  S
O228      Cd1703   2.453   1_554  S
C230       O1710   1.264       .  A
C230        C904   1.485       .  S
O232       C1699   1.267       .  A
O234       C1706   1.264       .  A
O234      Cd1703   2.426       .  S
O235        C238   1.267       .  A
O235       Cd240   2.449       .  S
C236        O245   1.265       .  A
C236        O241   1.266       .  A
C236       C1033   1.488       .  S
O237        C243   1.264       .  A
O237       Cd240   2.479       .  S
C238        O246   1.265       .  A
C238        C862   1.480       .  S
C239        O244   1.265       .  A
C239        O242   1.265       .  A
C239        C876   1.488       .  S
Cd240       O247   2.462       .  S
Cd240       O246   2.447       .  S
Cd240       O245   2.477       .  S
Cd240       O241   2.466       .  S
Cd240       O244   2.456       .  S
Cd240       O242   2.487       .  S
C243        O247   1.266       .  A
C243        C890   1.484       .  S
O248        C251   1.265       .  A
O248       Cd253   2.449       .  S
C249        O258   1.265       .  A
C249        O254   1.266       .  A
C249        C848   1.482       .  S
O250        C256   1.267       .  A
O250       Cd253   2.459       .  S
C251        O259   1.265       .  A
C251        C893   1.486       .  S
C252        O257   1.265       .  A
C252        O255   1.263       .  A
C252        C991   1.488       .  S
Cd253       O260   2.434       .  S
Cd253       O259   2.487       .  S
Cd253       O258   2.446       .  S
Cd253       O254   2.475       .  S
Cd253       O257   2.498       .  S
Cd253       O255   2.450       .  S
C256        O260   1.263       .  A
C256        C834   1.476       .  S
O261        C264   1.267       .  A
O261       Cd266   2.469       .  S
C262        O271   1.263       .  A
C262        O267   1.266       .  A
C262        C806   1.491       .  S
O263        C269   1.267       .  A
O263       Cd266   2.425       .  S
C264        O272   1.263       .  A
C264        C820   1.488       .  S
C265        O270   1.264       .  A
C265        O268   1.265       .  A
C265       C1327   1.485       .  S
Cd266       O273   2.476       .  S
Cd266       O272   2.482       .  S
Cd266       O271   2.455       .  S
Cd266       O267   2.514       .  S
Cd266       O270   2.446       .  S
Cd266       O268   2.488       .  S
C269        O273   1.266       .  A
C269        C792   1.481       .  S
O274        C277   1.267       .  A
O274      Cd1755   2.462   1_554  S
C275        O284   1.266       .  A
C275        O280   1.262       .  A
C275        C823   1.486       .  S
O276        C282   1.265       .  A
O276       Cd279   2.485       .  S
C277        O285   1.267       .  A
C277        C851   1.480       .  S
C278        O283   1.263       .  A
C278        O281   1.263       .  A
C278        C837   1.474       .  S
Cd279       O284   2.485       .  S
Cd279       O280   2.463       .  S
Cd279       O283   2.479       .  S
Cd279       O281   2.430       .  S
Cd279      O1750   2.462       .  S
Cd279      O1762   2.445       .  S
Cd279      O1761   2.441       .  S
C282       O1762   1.265       .  A
C282       C1310   1.486       .  S
O285      Cd1755   2.441   1_554  S
O286       C1758   1.265       .  A
O286      Cd1755   2.446       .  S
O287        C290   1.266       .  A
O287       Cd292   2.517       .  S
C288        O297   1.265       .  A
C288        O293   1.265       .  A
C288        C764   1.484       .  S
O289        C295   1.268       .  A
O289       Cd292   2.434       .  S
C290        O298   1.259       .  A
C290        C865   1.478       .  S
C291        O296   1.264       .  A
C291       O1770   1.266       .  A
C291        C879   1.489       .  S
Cd292       O299   2.479       .  S
Cd292       O298   2.396       .  S
Cd292       O297   2.440       .  S
Cd292       O293   2.481       .  S
Cd292       O294   2.474       .  S
Cd292      O1772   2.485       .  S
O294       C1767   1.266   1_554  A
C295        O299   1.266       .  A
C295        C781   1.485       .  S
O296      Cd1768   2.485       .  S
O300        C303   1.266       .  A
O300       Cd305   2.471       .  S
C301        O310   1.266       .  A
C301        O306   1.264       .  A
C301        C809   1.489       .  S
O302        C308   1.268       .  A
O302       Cd305   2.464       .  S
C303        O311   1.264       .  A
C303        C778   1.485       .  S
C304        O309   1.265       .  A
C304        O307   1.265       .  A
C304        C753   1.488       .  S
Cd305       O312   2.450       .  S
Cd305       O311   2.469       .  S
Cd305       O310   2.508       .  S
Cd305       O306   2.463       .  S
Cd305       O309   2.500       .  S
Cd305       O307   2.448       .  S
C308        O312   1.264       .  A
C308        C795   1.483       .  S
O313        C316   1.265       .  A
O313      Cd1794   2.460       .  S
C314        O323   1.264       .  A
C314        O319   1.266       .  A
C314        C739   1.483       .  S
O315        C321   1.267       .  A
O315       Cd318   2.459       .  S
C316       O1800   1.265       .  A
C316        C725   1.489       .  S
C317        O322   1.268       .  A
C317        O320   1.265       .  A
C317        C708   1.483       .  S
Cd318       O325   2.452       .  S
Cd318       O324   2.491   1_554  S
Cd318       O323   2.463       .  S
Cd318       O319   2.473       .  S
Cd318       O322   2.492       .  S
Cd318       O320   2.419       .  S
Cd318      O1789   2.457   1_554  S
C321        O325   1.264       .  A
C321       C1268   1.483       .  S
O324       C1792   1.265       .  A
O326        C329   1.265       .  A
O326       Cd331   2.451       .  S
C327        O336   1.264       .  A
C327        O332   1.268       .  A
C327        C697   1.495       .  S
O328        C334   1.265       .  A
O328       Cd331   2.491       .  S
C329        O337   1.264       .  A
C329        C736   1.486       .  S
C330        O335   1.266       .  A
C330        O333   1.264       .  A
C330       C1285   1.486       .  S
Cd331       O338   2.437       .  S
Cd331       O337   2.489       .  S
Cd331       O336   2.487       .  S
Cd331       O332   2.492       .  S
Cd331       O335   2.495       .  S
Cd331       O333   2.438       .  S
C334        O338   1.264       .  A
C334        C683   1.481       .  S
O339        C342   1.267       .  A
O339       Cd344   2.472       .  S
C340        O349   1.263       .  A
C340        O345   1.266       .  A
C340        C666   1.492       .  S
O341        C347   1.265       .  A
O341       Cd344   2.508       .  S
C342        O350   1.266       .  A
C342        C694   1.494       .  S
C343        O348   1.265       .  A
C343        O346   1.266       .  A
C343        C680   1.484       .  S
Cd344       O351   2.453       .  S
Cd344       O350   2.500       .  S
Cd344       O349   2.464       .  S
Cd344       O345   2.522       .  S
Cd344       O348   2.457       .  S
Cd344       O346   2.476       .  S
C347        O351   1.263       .  A
C347        C921   1.489       .  S
O352        C355   1.264       .  A
O352      Cd1833   2.486   1_554  S
C353        O362   1.264       .  A
C353        O358   1.267       .  A
C353        C669   1.491       .  S
O354        C360   1.264       .  A
O354       Cd357   2.445       .  S
C355        O363   1.266       .  A
C355        C641   1.485       .  S
C356        O361   1.265       .  A
C356        O359   1.265       .  A
C356        C655   1.483       .  S
Cd357       O362   2.461       .  S
Cd357       O358   2.501       .  S
Cd357       O361   2.453       .  S
Cd357       O359   2.467       .  S
Cd357      O1828   2.486       .  S
Cd357      O1840   2.481       .  S
Cd357      O1839   2.450       .  S
C360       O1840   1.266       .  A
C360        C907   1.485       .  S
O363      Cd1833   2.450   1_554  S
O364       C1836   1.266       .  A
O364      Cd1833   2.481       .  S
O365        C368   1.265       .  A
O365       Cd370   2.463       .  S
C366        O375   1.264       .  A
C366        O371   1.265       .  A
C366        C627   1.485       .  S
O367        C373   1.266       .  A
O367       Cd370   2.455       .  S
C368        O376   1.265       .  A
C368        C638   1.482       .  S
C369        O374   1.264       .  A
C369        O372   1.264       .  A
C369        C652   1.481       .  S
Cd370       O377   2.494       .  S
Cd370       O376   2.449       .  S
Cd370       O375   2.479       .  S
Cd370       O371   2.456       .  S
Cd370       O374   2.438       .  S
Cd370       O372   2.482       .  S
C373        O377   1.266       .  A
C373        C610   1.489       .  S
O378        C381   1.266       .  A
O378       Cd383   2.448       .  S
C379        O388   1.265       .  A
C379        O384   1.265       .  A
C379        C722   1.490       .  S
O380        C386   1.265       .  A
O380       Cd383   2.471       .  S
C381        O389   1.264       .  A
C381        C624   1.484       .  S
C382        O387   1.267       .  A
C382        O385   1.265       .  A
C382        C596   1.484       .  S
Cd383       O390   2.462       .  S
Cd383       O389   2.469       .  S
Cd383       O388   2.461       .  S
Cd383       O384   2.500       .  S
Cd383       O387   2.491       .  S
Cd383       O385   2.433       .  S
C386        O390   1.262       .  A
C386        C711   1.484       .  S
O391        C394   1.264       .  A
O391       Cd396   2.485       .  S
C392        O401   1.267       .  A
C392        O397   1.264       .  A
C392        C582   1.486       .  S
O393        C399   1.263       .  A
O393       Cd396   2.412       .  S
C394        O402   1.265       .  A
C394        C571   1.486       .  S
C395        O400   1.265       .  A
C395        O398   1.265       .  A
C395        C613   1.487       .  S
Cd396       O403   2.508       .  S
Cd396       O402   2.458       .  S
Cd396       O401   2.492       .  S
Cd396       O397   2.436       .  S
Cd396       O400   2.481       .  S
Cd396       O398   2.458       .  S
C399        O403   1.266       .  A
C399        C554   1.482       .  S
O404        C407   1.266       .  A
O404       Cd409   2.457       .  S
C405        O414   1.264       .  A
C405        O410   1.268       .  A
C405        C526   1.484       .  S
O406        C412   1.266       .  A
O406       Cd409   2.485       .  S
C407        O415   1.264       .  A
C407        C599   1.484       .  S
C408        O413   1.264       .  A
C408        O411   1.265       .  A
C408        C540   1.483       .  S
Cd409       O416   2.448       .  S
Cd409       O415   2.462       .  S
Cd409       O414   2.448       .  S
Cd409       O410   2.476       .  S
Cd409       O413   2.433       .  S
Cd409       O411   2.494       .  S
C412        O416   1.264       .  A
C412        C585   1.483       .  S
O417        C420   1.265       .  A
O417      Cd1898   2.467       .  S
C418        O427   1.266       .  A
C418        O423   1.266       .  A
C418        C512   1.484       .  S
O419        C425   1.265       .  A
O419       Cd422   2.508       .  S
C420       O1904   1.264       .  A
C420        C543   1.485       .  S
C421        O426   1.265       .  A
C421        O424   1.265       .  A
C421        C767   1.483       .  S
Cd422       O429   2.433       .  S
Cd422       O428   2.472   1_554  S
Cd422       O427   2.479       .  S
Cd422       O423   2.450       .  S
Cd422       O426   2.443       .  S
Cd422       O424   2.475       .  S
Cd422      O1893   2.468       .  S
C425        O429   1.263       .  A
C425        C529   1.486       .  S
O428       C1896   1.264       .  A
O430        C433   1.265       .  A
O430       Cd435   2.475       .  S
C431        O440   1.266       .  A
C431        O436   1.266       .  A
C431        C515   1.487       .  S
O432        C438   1.262       .  A
O432       Cd435   2.457       .  S
C433        O441   1.263       .  A
C433        C498   1.490       .  S
C434        O439   1.266       .  A
C434        O437   1.264       .  A
C434        C750   1.489       .  S
Cd435       O442   2.467       .  S
Cd435       O441   2.496       .  S
Cd435       O440   2.451       .  S
Cd435       O436   2.481       .  S
Cd435       O439   2.480       .  S
Cd435       O437   2.471       .  S
C438        O442   1.266       .  A
C438        C484   1.480   1_554  S
O443        C446   1.265       .  A
O443       Cd448   2.493       .  S
C444        O453   1.264       .  A
C444        O449   1.268       .  A
C444        C470   1.485       .  S
O445        C451   1.264       .  A
O445       Cd448   2.400       .  S
C446        O454   1.266       .  A
C446        C501   1.489       .  S
C447        O452   1.267       .  A
C447        O450   1.266       .  A
C447       C1103   1.486       .  S
Cd448       O455   2.491       .  S
Cd448       O454   2.467       .  S
Cd448       O453   2.460       .  S
Cd448       O449   2.464       .  S
Cd448       O452   2.486       .  S
Cd448       O450   2.443       .  S
C451        O455   1.268       .  A
C451        C487   1.481       .  S
O456        C459   1.267       .  A
O456      Cd1937   2.456   1_554  S
C457        O466   1.264       .  A
C457        O462   1.269       .  A
C457        C473   1.480       .  S
O458        C464   1.269       .  A
O458       Cd461   2.467       .  S
C459        O467   1.265       .  A
C459        C568   1.486       .  S
C460        O465   1.268       .  A
C460       O1939   1.264       .  A
C460       C1117   1.481       .  S
Cd461       O468   2.428       .  S
Cd461       O466   2.447       .  S
Cd461       O462   2.455       .  S
Cd461       O465   2.448       .  S
Cd461      O1932   2.457       .  S
Cd461      O1943   2.466       .  S
Cd461      O1939   2.452       .  S
O463       C1936   1.264   1_554  A
O463      Cd1937   2.452   1_554  S
C464        O468   1.264       .  A
C464        C557   1.483       .  S
O467      Cd1937   2.466   1_554  S
C469        C470   1.405       .  A
C469        C474   1.400       .  A
C469        H476   1.081       .  S
C470        C471   1.415       .  A
C471        C472   1.399       .  A
C471        N478   1.429       .  S
C472        C473   1.402       .  A
C472        H477   1.081       .  S
C473        C474   1.413       .  A
C474        N475   1.429       .  S
N475        O479   1.262       .  A
N475        O480   1.262       .  A
N478       O1958   1.262       .  A
N478        O481   1.262       .  A
O482       N1954   1.262       .  A
C483        C484   1.405       .  A
C483       C1964   1.401   1_545  A
C483        H490   1.083   1_556  S
C484        C485   1.412       .  A
C485       C1962   1.394       .  A
C485        N492   1.428       .  S
C486        C487   1.403   1_545  A
C486       C1961   1.394       .  A
C486        H491   1.083   1_545  S
C487        C488   1.412       .  A
C488       C1959   1.401   1_565  A
C488        N489   1.428       .  S
N489        O493   1.262       .  A
N489        O494   1.262       .  A
N492        O496   1.262       .  A
N492        O495   1.262       .  A
C497        C498   1.405       .  A
C497        C502   1.402   1_545  A
C497        H504   1.084       .  S
C498        C499   1.415   1_545  A
C499        C500   1.402       .  A
C499        N506   1.428       .  S
C500        C501   1.405       .  A
C500        H505   1.084       .  S
C501        C502   1.415       .  A
C502        N503   1.429       .  S
N503        O507   1.262       .  A
N503        O508   1.262   1_565  A
N506        O510   1.262   1_565  A
N506        O509   1.262       .  A
C511        C512   1.403       .  A
C511        C516   1.399       .  A
C511        H518   1.084       .  S
C512        C513   1.413       .  A
C513        C514   1.401       .  A
C513        N520   1.428       .  S
C514        C515   1.406       .  A
C514        H519   1.084       .  S
C515        C516   1.414       .  A
C516        N517   1.427       .  S
N517        O521   1.261       .  A
N517        O522   1.262       .  A
N520        O524   1.262       .  A
N520        O523   1.262       .  A
C525        C526   1.405       .  A
C525        C530   1.404       .  A
C525        H532   1.084       .  S
C526        C527   1.413       .  A
C527        C528   1.396       .  A
C527        N534   1.429       .  S
C528        C529   1.404       .  A
C528        H533   1.084       .  S
C529        C530   1.415       .  A
C530        N531   1.429       .  S
N531        O535   1.262       .  A
N531        O536   1.262       .  A
N534        O538   1.262       .  A
N534        O537   1.262       .  A
C539        C540   1.404       .  A
C539        C544   1.397       .  A
C539        H546   1.084       .  S
C540        C541   1.413       .  A
C541        C542   1.402       .  A
C541        N548   1.429       .  S
C542        C543   1.406       .  A
C542        H547   1.083       .  S
C543        C544   1.413       .  A
C544       N2021   1.429       .  S
N545       C2020   1.429       .  S
N545        O549   1.262       .  A
N545        O550   1.262       .  A
N548        O552   1.262       .  A
N548        O551   1.262       .  A
C553        C554   1.403       .  A
C553        C558   1.394       .  A
C553        H560   1.084       .  S
C554        C555   1.413       .  A
C555        C556   1.403       .  A
C555        N562   1.428       .  S
C556        C557   1.406       .  A
C556        H561   1.084       .  S
C557        C558   1.413       .  A
C558        N559   1.429       .  S
N559        O563   1.262       .  A
N559        O564   1.262       .  A
N562        O566   1.262       .  A
N562        O565   1.262       .  A
C567        C568   1.405       .  A
C567        C572   1.401       .  A
C567        H574   1.080       .  S
C568        C569   1.414       .  A
C569        C570   1.400       .  A
C569        N576   1.429       .  S
C570        C571   1.405       .  A
C570        H575   1.080       .  S
C571        C572   1.414       .  A
C572        N573   1.429       .  S
N573        O577   1.262       .  A
N573        O578   1.262       .  A
N576        O580   1.262       .  A
N576        O579   1.262       .  A
C581        C582   1.406       .  A
C581        C586   1.399       .  A
C581        H588   1.084       .  S
C582        C583   1.413       .  A
C583        C584   1.401   1_565  A
C583        N590   1.429       .  S
C584        C585   1.406       .  A
C584        H589   1.085       .  S
C585        C586   1.411   1_545  A
C586        N587   1.429   1_565  S
N587        O591   1.262       .  A
N587        O592   1.262       .  A
N590        O594   1.262       .  A
N590        O593   1.262       .  A
C595        C596   1.405       .  A
C595        C600   1.397       .  A
C595        H602   1.082       .  S
C596        C597   1.412       .  A
C597        C598   1.401       .  A
C597        N604   1.429       .  S
C598        C599   1.406       .  A
C598        H603   1.082       .  S
C599        C600   1.413       .  A
C600        N601   1.429       .  S
N601        O605   1.262       .  A
N601        O606   1.262       .  A
N604        O608   1.262       .  A
N604        O607   1.262       .  A
C609        C610   1.406       .  A
C609        C614   1.401       .  A
C609        H616   1.081       .  S
C610        C611   1.414       .  A
C611        C612   1.402       .  A
C611        N618   1.429       .  S
C612        C613   1.406       .  A
C612        H617   1.081       .  S
C613        C614   1.413       .  A
C614        N615   1.429       .  S
N615        O619   1.262       .  A
N615        O620   1.262       .  A
N618        O622   1.262       .  A
N618        O621   1.262       .  A
C623        C624   1.405       .  A
C623        C628   1.399   1_545  A
C623        H630   1.082       .  S
C624        C625   1.414       .  A
C625        C626   1.400   1_545  A
C625        N632   1.429       .  S
C626        C627   1.405       .  A
C626        H631   1.082       .  S
C627        C628   1.413       .  A
C628        N629   1.429       .  S
N629        O633   1.262       .  A
N629        O634   1.262       .  A
N632        O636   1.262       .  A
N632        O635   1.262       .  A
C637        C638   1.405       .  A
C637        C642   1.400       .  A
C637        H644   1.080       .  S
C638        C639   1.412       .  A
C639        C640   1.398       .  A
C639        N646   1.429       .  S
C640        C641   1.405       .  A
C640        H645   1.080       .  S
C641        C642   1.415       .  A
C642        N643   1.429       .  S
N643        O647   1.262       .  A
N643        O648   1.262       .  A
N646        O650   1.262       .  A
N646        O649   1.262       .  A
C651        C652   1.404       .  A
C651        C656   1.397       .  A
C651        H658   1.084       .  S
C652        C653   1.413       .  A
C653        C654   1.400       .  A
C653        N660   1.429       .  S
C654        C655   1.406       .  A
C654        H659   1.083       .  S
C655        C656   1.412       .  A
C656        N657   1.429       .  S
N657        O661   1.262       .  A
N657        O662   1.262       .  A
N660        O664   1.262       .  A
N660        O663   1.262       .  A
C665        C666   1.407       .  A
C665        C670   1.402       .  A
C665        H672   1.083       .  S
C666        C667   1.414       .  A
C667        C668   1.404       .  A
C667        N674   1.429       .  S
C668        C669   1.407       .  A
C668        H673   1.083       .  S
C669        C670   1.413       .  A
C670        N671   1.428       .  S
N671        O675   1.262       .  A
N671       O2152   1.262       .  A
N674        O678   1.262       .  A
N674        O677   1.262       .  A
O676       N2147   1.262       .  A
C679        C680   1.407       .  A
C679       C2160   1.402   1_565  A
C679        H686   1.083   1_565  S
C680        C681   1.413       .  A
C681       C2158   1.398       .  A
C681        N688   1.428       .  S
C682        C683   1.403   1_565  A
C682       C2157   1.398       .  A
C682        H687   1.084       .  S
C683        C684   1.412       .  A
C684       C2155   1.402   1_544  A
C684        N685   1.429   1_554  S
N685        O689   1.262       .  A
N685        O690   1.262       .  A
N688        O692   1.262       .  A
N688        O691   1.262       .  A
C693        C694   1.405       .  A
C693        C698   1.402   1_565  A
C693        H700   1.083       .  S
C694        C695   1.416       .  A
C695        C696   1.405   1_565  A
C695        N702   1.429       .  S
C696        C697   1.406       .  A
C696        H701   1.083       .  S
C697        C698   1.416       .  A
C698        N699   1.429       .  S
N699        O703   1.262       .  A
N699        O704   1.262       .  A
N702        O706   1.262       .  A
N702        O705   1.262       .  A
C707        C708   1.404       .  A
C707        C712   1.397       .  A
C707        H714   1.083       .  S
C708        C709   1.412       .  A
C709        C710   1.401       .  A
C709        N716   1.429       .  S
C710        C711   1.406       .  A
C710        H715   1.082       .  S
C711        C712   1.414       .  A
C712        N713   1.429       .  S
N713        O717   1.262       .  A
N713        O718   1.262       .  A
N716        O720   1.262       .  A
N716        O719   1.262       .  A
C721        C722   1.406       .  A
C721        C726   1.401       .  A
C721        H728   1.081       .  S
C722        C723   1.414       .  A
C723        C724   1.402       .  A
C723        N730   1.429       .  S
C724        C725   1.406       .  A
C724        H729   1.081       .  S
C725        C726   1.413       .  A
C726        N727   1.429       .  S
N727        O731   1.262       .  A
N727        O732   1.262       .  A
N730        O734   1.262       .  A
N730        O733   1.262       .  A
C735        C736   1.405       .  A
C735        C740   1.398       .  A
C735        H742   1.081       .  S
C736        C737   1.415       .  A
C737        C738   1.403       .  A
C737        N744   1.429       .  S
C738        C739   1.405       .  A
C738        H743   1.081       .  S
C739        C740   1.412       .  A
C740        N741   1.429       .  S
N741        O745   1.262       .  A
N741        O746   1.262       .  A
N744        O748   1.262       .  A
N744        O747   1.262       .  A
C749        C750   1.407       .  A
C749        C754   1.404       .  A
C749        H756   1.084       .  S
C750        C751   1.414       .  A
C751        C752   1.398       .  A
C751        N758   1.429       .  S
C752        C753   1.404       .  A
C752        H757   1.084       .  S
C753        C754   1.415       .  A
C754        N755   1.429       .  S
N755        O759   1.262       .  A
N755        O760   1.262       .  A
N758        O762   1.262       .  A
N758        O761   1.262       .  A
C763        C764   1.405       .  A
C763        C768   1.398       .  A
C763        H770   1.084   1_554  S
C764        C765   1.413       .  A
C765        C766   1.399       .  A
C765        N772   1.429       .  S
C766        C767   1.405       .  A
C766        H771   1.084       .  S
C767        C768   1.413       .  A
C768        N769   1.429   1_554  S
N769        O773   1.262       .  A
N769        O774   1.262       .  A
N772       O2252   1.262       .  A
N772        O775   1.262       .  A
O776       N2248   1.262       .  A
C777        C778   1.405       .  A
C777        C782   1.403       .  A
C777        H784   1.082       .  S
C778        C779   1.413       .  A
C779        C780   1.396       .  A
C779        N786   1.427       .  S
C780        C781   1.402       .  A
C780        H785   1.082       .  S
C781        C782   1.415       .  A
C782        N783   1.428       .  S
N783        O787   1.262       .  A
N783        O788   1.262       .  A
N786        O790   1.261       .  A
N786        O789   1.262       .  A
C791        C796   1.395       .  A
C791       C2268   1.401       .  A
C791        H798   1.084       .  S
C792        C793   1.414       .  A
C792       C2267   1.401       .  A
C793       C2270   1.401       .  A
C793        N800   1.428       .  S
C794        C795   1.405       .  A
C794       C2269   1.401   1_554  A
C794        H799   1.084       .  S
C795        C796   1.414   1_554  A
C796        N797   1.427       .  S
N797        O801   1.262       .  A
N797        O802   1.261       .  A
N800        O804   1.262       .  A
N800        O803   1.262       .  A
C805        C806   1.407       .  A
C805        C810   1.402       .  A
C805        H812   1.082       .  S
C806        C807   1.413       .  A
C807        C808   1.403       .  A
C807        N814   1.429       .  S
C808        C809   1.407       .  A
C808        H813   1.082       .  S
C809        C810   1.412       .  A
C810        N811   1.429       .  S
N811        O815   1.262       .  A
N811        O816   1.262       .  A
N814        O818   1.262       .  A
N814        O817   1.262       .  A
C819        C820   1.404       .  A
C819        C824   1.399       .  A
C819        H826   1.084       .  S
C820        C821   1.416       .  A
C821        C822   1.402       .  A
C821        N828   1.429       .  S
C822        C823   1.404       .  A
C822        H827   1.084       .  S
C823        C824   1.414       .  A
C824        N825   1.429       .  S
N825        O829   1.262       .  A
N825        O830   1.262       .  A
N828        O832   1.262       .  A
N828        O831   1.262       .  A
C833        C834   1.404       .  A
C833        C838   1.400       .  A
C833        H840   1.083       .  S
C834        C835   1.412       .  A
C835        C836   1.394       .  A
C835        N842   1.429       .  S
C836        C837   1.402       .  A
C836        H841   1.083       .  S
C837        C838   1.411       .  A
C838        N839   1.429       .  S
N839        O843   1.262       .  A
N839        O844   1.262       .  A
N842        O846   1.261       .  A
N842        O845   1.262       .  A
C847        C848   1.405       .  A
C847        C852   1.399       .  A
C847        H854   1.081       .  S
C848        C849   1.412       .  A
C849        C850   1.399       .  A
C849        N856   1.429       .  S
C850        C851   1.404       .  A
C850        H855   1.081       .  S
C851        C852   1.412       .  A
C852        N853   1.429       .  S
N853        O857   1.262       .  A
N853        O858   1.262       .  A
N856        O860   1.262       .  A
N856        O859   1.262       .  A
C861        C862   1.407       .  A
C861        C866   1.401       .  A
C861        H868   1.084       .  S
C862        C863   1.412       .  A
C863        C864   1.393       .  A
C863        N870   1.429       .  S
C864        C865   1.404       .  A
C864        H869   1.084       .  S
C865        C866   1.411       .  A
C866        N867   1.428       .  S
N867        O871   1.262       .  A
N867        O872   1.262       .  A
N870        O874   1.262       .  A
N870        O873   1.262       .  A
C875        C876   1.405       .  A
C875        C880   1.400       .  A
C875        H882   1.084       .  S
C876        C877   1.414       .  A
C877        C878   1.402       .  A
C877        N884   1.429       .  S
C878        C879   1.406       .  A
C878        H883   1.084       .  S
C879        C880   1.415       .  A
C880        N881   1.429       .  S
N881        O885   1.262       .  A
N881        O886   1.262       .  A
N884        O888   1.262       .  A
N884        O887   1.262       .  A
C889        C890   1.404       .  A
C889        C894   1.401       .  A
C889        H896   1.084       .  S
C890        C891   1.413       .  A
C891        C892   1.400       .  A
C891        N898   1.429       .  S
C892        C893   1.406       .  A
C892        H897   1.084       .  S
C893        C894   1.414       .  A
C894        N895   1.429       .  S
N895        O899   1.262       .  A
N895        O900   1.262       .  A
N898        O902   1.262       .  A
N898        O901   1.262       .  A
C903        C904   1.406       .  A
C903        C908   1.398       .  A
C903        H910   1.084       .  S
C904        C905   1.412       .  A
C905        C906   1.401       .  A
C905       N2388   1.428       .  S
C906        C907   1.406       .  A
C906       H2387   1.084       .  S
C907        C908   1.412       .  A
C908        N909   1.429       .  S
N909        O913   1.262       .  A
N909        O914   1.262       .  A
H911       C2382   1.084       .  S
N912       C2381   1.429       .  S
N912       O2392   1.262       .  A
N912        O915   1.262       .  A
O916       N2388   1.262       .  A
C917        C918   1.406       .  A
C917        C922   1.401       .  A
C917        H924   1.084       .  S
C918        C919   1.414       .  A
C919        C920   1.400       .  A
C919        N926   1.429       .  S
C920        C921   1.406       .  A
C920        H925   1.084       .  S
C921        C922   1.414       .  A
C922        N923   1.428       .  S
N923        O927   1.262       .  A
N923        O928   1.262       .  A
N926        O930   1.262       .  A
N926        O929   1.262       .  A
C931        C932   1.405       .  A
C931        C936   1.403       .  A
C931        H938   1.083       .  S
C932        C933   1.413       .  A
C933        C934   1.400       .  A
C933        N940   1.429       .  S
C934        C935   1.405       .  A
C934        H939   1.083       .  S
C935        C936   1.416       .  A
C936        N937   1.429       .  S
N937        O941   1.262       .  A
N937        O942   1.262       .  A
N940        O944   1.262       .  A
N940        O943   1.262       .  A
C945        C946   1.405   1_556  A
C945        C950   1.398       .  A
C945        H952   1.082       .  S
C946        C947   1.414       .  A
C947       C2424   1.399   1_554  A
C947        N954   1.429       .  S
C948        C949   1.404       .  A
C948       C2423   1.400       .  A
C948        H953   1.082       .  S
C949       C2426   1.412       .  A
C950       C2425   1.412       .  A
C950        N951   1.429       .  S
N951        O955   1.262       .  A
N951       O2432   1.262       .  A
N954       O2434   1.262       .  A
N954        O957   1.262       .  A
O956       N2427   1.262       .  A
O958       N2430   1.262       .  A
C959        C960   1.405       .  A
C959        C964   1.399       .  A
C959        H966   1.081       .  S
C960        C961   1.413       .  A
C961        C962   1.400       .  A
C961        N968   1.429       .  S
C962        C963   1.406       .  A
C962        H967   1.081       .  S
C963        C964   1.413       .  A
C964        N965   1.429       .  S
N965        O969   1.262       .  A
N965        O970   1.262       .  A
N968        O972   1.262       .  A
N968        O971   1.262       .  A
C973        C974   1.404       .  A
C973        C978   1.402       .  A
C973        H980   1.083       .  S
C974        C975   1.413       .  A
C975        C976   1.399       .  A
C975        N982   1.429       .  S
C976        C977   1.405       .  A
C976        H981   1.083       .  S
C977        C978   1.414       .  A
C978        N979   1.429       .  S
N979        O983   1.262       .  A
N979        O984   1.262       .  A
N982        O986   1.262       .  A
N982        O985   1.262       .  A
C987        C988   1.406       .  A
C987        C992   1.401       .  A
C987        H994   1.083       .  S
C988        C989   1.413       .  A
C989        C990   1.400       .  A
C989        N996   1.429       .  S
C990        C991   1.406       .  A
C990        H995   1.083       .  S
C991        C992   1.413       .  A
C992        N993   1.429       .  S
N993        O997   1.262       .  A
N993        O998   1.262       .  A
N996       O1000   1.262       .  A
N996        O999   1.262       .  A
C1001      C1002   1.407       .  A
C1001      C1006   1.404       .  A
C1001      H1008   1.083       .  S
C1002      C1003   1.412       .  A
C1003      C1004   1.393       .  A
C1003      N1010   1.429       .  S
C1004      C1005   1.403       .  A
C1004      H1009   1.084       .  S
C1005      C1006   1.410       .  A
C1006      N1007   1.428       .  S
N1007      O1011   1.262       .  A
N1007      O1012   1.262       .  A
N1010      O1014   1.262       .  A
N1010      O1013   1.262       .  A
C1015      C1016   1.405       .  A
C1015      C1020   1.401       .  A
C1015      H1022   1.084       .  S
C1016      C1017   1.412       .  A
C1017      C1018   1.403       .  A
C1017      N1024   1.429       .  S
C1018      C1019   1.408       .  A
C1018      H1023   1.084       .  S
C1019      C1020   1.414       .  A
C1020      N1021   1.429       .  S
N1021      O1025   1.262       .  A
N1021      O1026   1.262       .  A
N1024      O1028   1.262       .  A
N1024      O2503   1.262       .  A
O1027      N2500   1.262       .  A
C1029      C1030   1.405       .  A
C1029      C1034   1.399       .  A
C1029      H1036   1.083       .  S
C1030      C1031   1.414       .  A
C1031      C1032   1.403       .  A
C1031      N1038   1.429       .  S
C1032      C1033   1.406       .  A
C1032      H1037   1.083       .  S
C1033      C1034   1.413       .  A
C1034      N1035   1.429       .  S
N1035      O1039   1.262       .  A
N1035      O1040   1.262       .  A
N1038      O1042   1.262       .  A
N1038      O1041   1.262       .  A
C1043      C1044   1.405       .  A
C1043      C1048   1.399       .  A
C1043      H1050   1.083       .  S
C1044      C1045   1.413       .  A
C1045      C1046   1.399       .  A
C1045      N1052   1.429       .  S
C1046      C1047   1.405       .  A
C1046      H1051   1.083       .  S
C1047      C1048   1.413       .  A
C1048      N1049   1.429       .  S
N1049      O1053   1.262       .  A
N1049      O1054   1.262       .  A
N1052      O1056   1.262       .  A
N1052      O1055   1.262       .  A
C1057      C1058   1.407       .  A
C1057      C1062   1.406       .  A
C1057      H1064   1.081       .  S
C1058      C1059   1.414       .  A
C1059      C1060   1.400       .  A
C1059      N1066   1.429       .  S
C1060      C1061   1.405       .  A
C1060      H1065   1.081       .  S
C1061      C1062   1.415       .  A
C1062      N1063   1.429       .  S
N1063      O1067   1.262       .  A
N1063      O1068   1.262       .  A
N1066      O1070   1.262       .  A
N1066      O1069   1.262       .  A
C1071      C1072   1.406       .  A
C1071      C1076   1.402       .  A
C1071      H1078   1.082       .  S
C1072      C1073   1.413       .  A
C1073      C1074   1.399       .  A
C1073      N1080   1.428       .  S
C1074      C1075   1.404       .  A
C1074      H1079   1.082       .  S
C1075      C1076   1.415       .  A
C1076      N1077   1.429       .  S
N1077      O1081   1.262       .  A
N1077      O1082   1.262       .  A
N1080      O1084   1.262       .  A
N1080      O1083   1.262       .  A
C1085      C1086   1.406       .  A
C1085      C1090   1.398   1_655  A
C1085      H1092   1.082       .  S
C1086      C1087   1.414       .  A
C1087      C1088   1.402   1_655  A
C1087      N1094   1.429       .  S
C1088      C1089   1.406       .  A
C1088      H1093   1.083       .  S
C1089      C1090   1.410       .  A
C1090      N1091   1.429       .  S
N1091      O1095   1.262       .  A
N1091      O1096   1.262       .  A
N1094      O1098   1.262       .  A
N1094      O1097   1.262       .  A
C1099      C1100   1.405       .  A
C1099      C1104   1.400       .  A
C1099      H1106   1.085       .  S
C1100      C1101   1.414       .  A
C1101      C1102   1.399       .  A
C1101      N1108   1.430       .  S
C1102      C1103   1.405       .  A
C1102      H1107   1.085       .  S
C1103      C1104   1.413       .  A
C1104      N1105   1.428       .  S
N1105      O1109   1.262       .  A
N1105      O1110   1.262       .  A
N1108      O1112   1.262       .  A
N1108      O1111   1.262       .  A
C1113      C1114   1.404       .  A
C1113      C1118   1.398       .  A
C1113      H1120   1.085       .  S
C1114      C1115   1.413       .  A
C1115      C1116   1.398       .  A
C1115      N1122   1.428       .  S
C1116      C1117   1.404       .  A
C1116      H1121   1.085       .  S
C1117      C1118   1.414       .  A
C1118      N1119   1.430       .  S
N1119      O1123   1.262       .  A
N1119      O2600   1.262       .  A
N1122      O2602   1.262       .  A
N1122      O1125   1.262       .  A
O1124      N2595   1.262       .  A
O1126      N2598   1.262       .  A
C1127      C1128   1.405       .  A
C1127      C1132   1.401       .  A
C1127      H1134   1.083       .  S
C1128      C1129   1.414       .  A
C1129      C1130   1.402       .  A
C1129      N1136   1.429       .  S
C1130      C1131   1.406       .  A
C1130      H1135   1.083       .  S
C1131      C1132   1.414       .  A
C1132      N1133   1.429       .  S
N1133      O1137   1.262       .  A
N1133      O1138   1.262       .  A
N1136      O1140   1.262       .  A
N1136      O1139   1.262       .  A
C1141      C1142   1.406       .  A
C1141      C1146   1.406       .  A
C1141      H1148   1.082       .  S
C1142      C1143   1.412       .  A
C1143      C1144   1.396       .  A
C1143      N1150   1.429       .  S
C1144      C1145   1.404       .  A
C1144      H1149   1.082       .  S
C1145      C1146   1.415       .  A
C1146      N1147   1.429       .  S
N1147      O1151   1.262       .  A
N1147      O1152   1.262       .  A
N1150      O1154   1.262       .  A
N1150      O1153   1.262       .  A
C1155      C1156   1.406       .  A
C1155      C1160   1.398       .  A
C1155      H1162   1.084       .  S
C1156      C1157   1.414       .  A
C1157      C1158   1.403       .  A
C1157      N1164   1.428       .  S
C1158      C1159   1.406       .  A
C1158      H1163   1.085       .  S
C1159      C1160   1.410       .  A
C1160      N1161   1.429       .  S
N1161      O1165   1.262       .  A
N1161      O1166   1.262       .  A
N1164      O1168   1.262       .  A
N1164      O1167   1.262       .  A
C1169      C1170   1.405       .  A
C1169      C1174   1.402       .  A
C1169      H1176   1.081       .  S
C1170      C1171   1.412       .  A
C1171      C1172   1.399       .  A
C1171      N1178   1.429       .  S
C1172      C1173   1.406       .  A
C1172      H1177   1.081       .  S
C1173      C1174   1.414       .  A
C1174      N1175   1.428       .  S
N1175      O1179   1.262       .  A
N1175      O1180   1.262       .  A
N1178      O1182   1.262       .  A
N1178      O1181   1.262       .  A
C1183      C1184   1.406       .  A
C1183      C1188   1.404   1_654  A
C1183      H1190   1.081   1_655  S
C1184      C1185   1.412   1_554  A
C1185      C2662   1.397       .  A
C1185      N1192   1.428       .  S
C1186      C1187   1.404   1_655  A
C1186      C2661   1.397       .  A
C1186      H1191   1.082       .  S
C1187      C2664   1.413       .  A
C1188      C2663   1.413       .  A
C1188      N1189   1.429   1_556  S
N1189      O1193   1.262       .  A
N1189      O2670   1.262       .  A
N1192      O2672   1.262       .  A
N1192      O1195   1.262       .  A
O1194      N2665   1.262       .  A
O1196      N2668   1.262       .  A
C1197      C1198   1.406       .  A
C1197      C1202   1.401   1_655  A
C1197      H1204   1.080       .  S
C1198      C1199   1.414       .  A
C1199      C1200   1.403       .  A
C1199      N1206   1.429       .  S
C1200      C1201   1.407   1_655  A
C1200      H1205   1.080       .  S
C1201      C1202   1.413       .  A
C1202      N1203   1.429       .  S
N1203      O1207   1.262       .  A
N1203      O1208   1.262       .  A
N1206      O1210   1.262       .  A
N1206      O1209   1.262       .  A
C1211      C1212   1.405       .  A
C1211      C1216   1.399       .  A
C1211      H1218   1.084       .  S
C1212      C1213   1.415       .  A
C1213      C1214   1.399       .  A
C1213      N1220   1.429   1_554  S
C1214      C1215   1.405       .  A
C1214      H1219   1.084       .  S
C1215      C1216   1.411       .  A
C1216      N1217   1.428       .  S
N1217      O1221   1.262       .  A
N1217      O2698   1.262       .  A
N1220      O1224   1.262       .  A
N1220      O1223   1.262   1_556  A
O1222      N2693   1.262       .  A
C1225      C1226   1.406       .  A
C1225      C1230   1.402       .  A
C1225      H1232   1.084       .  S
C1226      C1227   1.413       .  A
C1227      C1228   1.395       .  A
C1227      N1234   1.429       .  S
C1228      C1229   1.403       .  A
C1228      H1233   1.084       .  S
C1229      C1230   1.413       .  A
C1230      N1231   1.428       .  S
N1231      O1235   1.262       .  A
N1231      O1236   1.262       .  A
N1234      O1238   1.262       .  A
N1234      O1237   1.262       .  A
C1239      C1240   1.405       .  A
C1239      C1244   1.397       .  A
C1239      H1246   1.082       .  S
C1240      C1241   1.412       .  A
C1241      C1242   1.398       .  A
C1241      N1248   1.429       .  S
C1242      C1243   1.405       .  A
C1242      H1247   1.082       .  S
C1243      C1244   1.413       .  A
C1244      N1245   1.429       .  S
N1245      O1249   1.262       .  A
N1245      O1250   1.262       .  A
N1248      O1252   1.262       .  A
N1248      O1251   1.262       .  A
C1253      C1254   1.405       .  A
C1253      C1258   1.400       .  A
C1253      H1260   1.083       .  S
C1254      C1255   1.414       .  A
C1255      C1256   1.401       .  A
C1255      N1262   1.428       .  S
C1256      C1257   1.405       .  A
C1256      H1261   1.083       .  S
C1257      C1258   1.414       .  A
C1258      N1259   1.429       .  S
N1259      O1263   1.262       .  A
N1259      O1264   1.262       .  A
N1262      O1266   1.262       .  A
N1262      O1265   1.262       .  A
C1267      C1268   1.405       .  A
C1267      C1272   1.400       .  A
C1267      H1274   1.084       .  S
C1268      C1269   1.413   1_554  A
C1269      C1270   1.396       .  A
C1269      N2752   1.429       .  S
C1270      C1271   1.403   1_556  A
C1270      H1275   1.084       .  S
C1271      C1272   1.414       .  A
C1272      N1273   1.429       .  S
N1273      O1277   1.262       .  A
N1273      O1278   1.262       .  A
N1276      C2745   1.429       .  S
N1276      O2756   1.262       .  A
N1276      O1279   1.262       .  A
O1280      N2752   1.262       .  A
C1281      C1282   1.405       .  A
C1281      C1286   1.402       .  A
C1281      H1288   1.084       .  S
C1282      C1283   1.415       .  A
C1283      C1284   1.397       .  A
C1283      N1290   1.429       .  S
C1284      C1285   1.404       .  A
C1284      H1289   1.085       .  S
C1285      C1286   1.414       .  A
C1286      N1287   1.428       .  S
N1287      O1291   1.262       .  A
N1287      O1292   1.262       .  A
N1290      O1294   1.262       .  A
N1290      O1293   1.262       .  A
C1295      C1296   1.405       .  A
C1295      C1300   1.397       .  A
C1295      H1302   1.083       .  S
C1296      C1297   1.411       .  A
C1297      C1298   1.399       .  A
C1297      N1304   1.429       .  S
C1298      C1299   1.406       .  A
C1298      H1303   1.083       .  S
C1299      C1300   1.412       .  A
C1300      N1301   1.429       .  S
N1301      O2781   1.262   1_554  A
N1301      O2782   1.262   1_554  A
N1304      O1308   1.262       .  A
N1304      O1307   1.262       .  A
O1305      N2777   1.262       .  A
O1306      N2777   1.262       .  A
C1309      C1314   1.399       .  A
C1309      C2786   1.405   1_554  A
C1309      H1316   1.081       .  S
C1310      C1311   1.413       .  A
C1310      C2785   1.405       .  A
C1311      C1312   1.401       .  A
C1311      N1318   1.429       .  S
C1312      C1313   1.405       .  A
C1312      H1317   1.081       .  S
C1313      C2790   1.413       .  A
C1314      C2789   1.413   1_554  A
C1314      N1315   1.429       .  S
N1315      O1319   1.262       .  A
N1315      O1320   1.262       .  A
N1318      O1322   1.262       .  A
N1318      O1321   1.262       .  A
C1323      C1324   1.406       .  A
C1323      C1328   1.400       .  A
C1323      H1330   1.081       .  S
C1324      C1325   1.412       .  A
C1325      C1326   1.399       .  A
C1325      N1332   1.429       .  S
C1326      C1327   1.406       .  A
C1326      H1331   1.081       .  S
C1327      C1328   1.412       .  A
C1328      N1329   1.429       .  S
N1329      O1333   1.262       .  A
N1329      O1334   1.262       .  A
N1332      O1336   1.262       .  A
N1332      O1335   1.262       .  A
C1337      C1338   1.405   1_655  A
C1337      C2818   1.398       .  A
C1337      H1344   1.081       .  S
C1338      C2815   1.413       .  A
C1339      C1340   1.402       .  A
C1339      C2814   1.413   1_554  A
C1339      N1346   1.429       .  S
C1340      C1341   1.404   1_455  A
C1340      H1345   1.081       .  S
C1341      C1342   1.411   1_554  A
C1342      C2813   1.398       .  A
C1342      N2819   1.429       .  S
N1343      C2818   1.429       .  S
N1343      O1347   1.262       .  A
N1343      O2824   1.262       .  A
N1346      O1350   1.262       .  A
N1346      O2825   1.262       .  A
O1348      N2819   1.262       .  A
O1349      N2822   1.262       .  A
C1351      C1352   1.406       .  A
C1351      C1356   1.402       .  A
C1351      H1358   1.084       .  S
C1352      C1353   1.414       .  A
C1353      C1354   1.401   1_455  A
C1353      N1360   1.428       .  S
C1354      C1355   1.405       .  A
C1354      H1359   1.084       .  S
C1355      C1356   1.414   1_655  A
C1356      N1357   1.429   1_455  S
N1357      O1361   1.262       .  A
N1357      O1362   1.262   1_655  A
N1360      O1364   1.262       .  A
N1360      O1363   1.262       .  A
C1365      C1366   1.404       .  A
C1365      C1370   1.401       .  A
C1365      H1372   1.084       .  S
C1366      C1367   1.413       .  A
C1367      C1368   1.400       .  A
C1367      N1374   1.429       .  S
C1368      C1369   1.405       .  A
C1368      H1373   1.084       .  S
C1369      C1370   1.415       .  A
C1370      N1371   1.429       .  S
N1371      O1375   1.262       .  A
N1371      O1376   1.262       .  A
N1374      O1378   1.262       .  A
N1374      O1377   1.262       .  A
C1379      C1380   1.404       .  A
C1379      C1384   1.397       .  A
C1379      H1386   1.085       .  S
C1380      C1381   1.411       .  A
C1381      C1382   1.399       .  A
C1381      N1388   1.429       .  S
C1382      C1383   1.406       .  A
C1382      H1387   1.085       .  S
C1383      C1384   1.412       .  A
C1384      N1385   1.429       .  S
N1385      O1389   1.262       .  A
N1385      O1390   1.262       .  A
N1388      O1392   1.262       .  A
N1388      O1391   1.262       .  A
C1393      C1394   1.404       .  A
C1393      C1398   1.395       .  A
C1393      H1400   1.084       .  S
C1394      C1395   1.411       .  A
C1395      C1396   1.401       .  A
C1395      N1402   1.429       .  S
C1396      C1397   1.407       .  A
C1396      H1401   1.084       .  S
C1397      C1398   1.411       .  A
C1398      N1399   1.429       .  S
N1399      O1403   1.262       .  A
N1399      O1404   1.262       .  A
N1402      O1406   1.262       .  A
N1402      O1405   1.262       .  A
C1407      C1408   1.405       .  A
C1407      C1412   1.402       .  A
C1407      H1414   1.084       .  S
C1408      C1409   1.413       .  A
C1409      C1410   1.397       .  A
C1409      N1416   1.429       .  S
C1410      C1411   1.402       .  A
C1410      H1415   1.084       .  S
C1411      C1412   1.412       .  A
C1412      N1413   1.429       .  S
N1413      O1417   1.262       .  A
N1413      O2894   1.262       .  A
N1416      O1420   1.262       .  A
N1416      O1419   1.262       .  A
O1418      N2889   1.262       .  A
C1421      C1422   1.405       .  A
C1421      C1426   1.400       .  A
C1421      H1428   1.084       .  S
C1422      C1423   1.414       .  A
C1423      C1424   1.402       .  A
C1423      N1430   1.429       .  S
C1424      C1425   1.406       .  A
C1424      H1429   1.083       .  S
C1425      C1426   1.414       .  A
C1426      N1427   1.429       .  S
N1427      O1431   1.262       .  A
N1427      O1432   1.262       .  A
N1430      O1434   1.262       .  A
N1430      O1433   1.262       .  A
C1435      C1436   1.403       .  A
C1435      C1440   1.403       .  A
C1435      H1442   1.084       .  S
C1436      C1437   1.411       .  A
C1437      C1438   1.393       .  A
C1437      N1444   1.428       .  S
C1438      C1439   1.403       .  A
C1438      H1443   1.084       .  S
C1439      C1440   1.415       .  A
C1440      N1441   1.428       .  S
N1441      O1445   1.262       .  A
N1441      O1446   1.262       .  A
N1444      O1448   1.262       .  A
N1444      O1447   1.262       .  A
C1449      C1450   1.407       .  A
C1449      C1454   1.404       .  A
C1449      H1456   1.081       .  S
C1450      C1451   1.414       .  A
C1451      C1452   1.403       .  A
C1451      N1458   1.428       .  S
C1452      C1453   1.406       .  A
C1452      H1457   1.081       .  S
C1453      C1454   1.415       .  A
C1454      N1455   1.429       .  S
N1455      O1459   1.262       .  A
N1455      O1460   1.262       .  A
N1458      O1462   1.262       .  A
N1458      O1461   1.262       .  A
C1463      C1464   1.403       .  A
C1463      C1468   1.400   1_455  A
C1463      H1470   1.083       .  S
C1464      C1465   1.416       .  A
C1465      C1466   1.402   1_455  A
C1465      N1472   1.428       .  S
C1466      C1467   1.403       .  A
C1466      H1471   1.083       .  S
C1467      C1468   1.414       .  A
C1468      N1469   1.428       .  S
N1469      O1473   1.262       .  A
N1469      O1474   1.262       .  A
N1472      O1476   1.261       .  A
N1472      O1475   1.262       .  A
O1477      C1480   1.265       .  A
O1477     Cd1482   2.479       .  S
C1478      O1487   1.265       .  A
C1478      O1483   1.269       .  A
C1478      C2940   1.488       .  S
O1479      C1485   1.267       .  A
O1479     Cd1482   2.478       .  S
C1480      O1488   1.265       .  A
C1480      C2926   1.492       .  S
C1481      O1486   1.264       .  A
C1481      O1484   1.265       .  A
C1481      C2898   1.488       .  S
Cd1482     O1489   2.435       .  S
Cd1482     O1488   2.504       .  S
Cd1482     O1487   2.474       .  S
Cd1482     O1483   2.470       .  S
Cd1482     O1486   2.492       .  S
Cd1482     O1484   2.463       .  S
C1485      O1489   1.262       .  A
C1485      C2912   1.478       .  S
O1490      C1493   1.266       .  A
O1490     Cd1495   2.471       .  S
C1491      O1500   1.263       .  A
C1491      O1496   1.268       .  A
C1491      C2943   1.486       .  S
O1492      C1498   1.266       .  A
O1492     Cd1495   2.501       .  S
C1493      O1501   1.264       .  A
C1493      C2884   1.482       .  S
C1494      O1499   1.266       .  A
C1494      O1497   1.263       .  A
C1494      C2856   1.479       .  S
Cd1495     O1502   2.408       .  S
Cd1495     O1501   2.459       .  S
Cd1495     O1500   2.459       .  S
Cd1495     O1496   2.481       .  S
Cd1495     O1499   2.486       .  S
Cd1495     O1497   2.422       .  S
C1498      O1502   1.262       .  A
C1498      C2870   1.478       .  S
O1503      C1506   1.266       .  A
O1503     Cd1508   2.465       .  S
C1504      O1513   1.265       .  A
C1504      O1509   1.264       .  A
C1504      C2842   1.485       .  S
O1505      C1511   1.267       .  A
O1505     Cd1508   2.483       .  S
C1506      O1514   1.266       .  A
C1506      C2828   1.490       .  S
C1507      O1512   1.266       .  A
C1507      O1510   1.263       .  A
C1507      C2800   1.485       .  S
Cd1508     O1515   2.427       .  S
Cd1508     O1514   2.488       .  S
Cd1508     O1513   2.469       .  S
Cd1508     O1509   2.484       .  S
Cd1508     O1512   2.486       .  S
Cd1508     O1510   2.443       .  S
C1511      O1515   1.266       .  A
C1511      C2814   1.483       .  S
O1516      C1519   1.266       .  A
O1516     Cd1521   2.460       .  S
C1517      O1526   1.266       .  A
C1517      O1522   1.265       .  A
C1517      C2915   1.484       .  S
O1518      C1524   1.267       .  A
O1518     Cd1521   2.462       .  S
C1519      C2789   1.485       .  S
C1520      O1525   1.265       .  A
C1520      O1523   1.266       .  A
C1520      C2929   1.492       .  S
Cd1521     O1528   2.473       .  S
Cd1521     O1526   2.496       .  S
Cd1521     O1522   2.417       .  S
C1524      O1528   1.264       .  A
C1524      C2845   1.487       .  S
O1529      C1532   1.267       .  A
O1529     Cd1534   2.482       .  S
C1530      O1539   1.263       .  A
C1530      O1535   1.266       .  A
C1530      C2772   1.479       .  S
O1531      C1537   1.265       .  A
O1531     Cd1534   2.476       .  S
C1532      O1540   1.267       .  A
C1532      C2831   1.489       .  S
C1533      O1538   1.267       .  A
C1533      O1536   1.262       .  A
C1533      C2758   1.486       .  S
Cd1534     O1541   2.460       .  S
Cd1534     O1540   2.451       .  S
Cd1534     O1539   2.418       .  S
Cd1534     O1535   2.479       .  S
Cd1534     O1538   2.480       .  S
Cd1534     O1536   2.457       .  S
C1537      O1541   1.265       .  A
C1537      C2817   1.480       .  S
O1542      C1545   1.264       .  A
C1543      O1552   1.263       .  A
C1543      O1548   1.264       .  A
C1543      C2775   1.481       .  S
O1544      C1550   1.265       .  A
O1544     Cd1547   2.445       .  S
C1545      C2887   1.479       .  S
C1546      O1551   1.262       .  A
C1546      O1549   1.265       .  A
C1546      C2747   1.483       .  S
Cd1547     O1554   2.460       .  S
Cd1547     O1553   2.444       .  S
Cd1547     O1552   2.445       .  S
Cd1547     O1548   2.475       .  S
Cd1547     O1551   2.480       .  S
Cd1547     O1549   2.445       .  S
C1550      O1554   1.266       .  A
C1550      C2873   1.480       .  S
O1555      C1558   1.266       .  A
O1555     Cd1560   2.460       .  S
C1556      O1561   1.265   1_556  A
C1556      C2716   1.481       .  S
O1557      C1563   1.267       .  A
O1557     Cd1560   2.469       .  S
C1558      O1566   1.265       .  A
C1558      C2733   1.487       .  S
C1559      O1564   1.267       .  A
C1559      O1562   1.265       .  A
C1559      C2691   1.482       .  S
Cd1560     O1567   2.441       .  S
Cd1560     O1566   2.473       .  S
Cd1560     O1565   2.477       .  S
Cd1560     O1564   2.473       .  S
Cd1560     O1562   2.440       .  S
C1563      O1567   1.263       .  A
C1563      C2702   1.483       .  S
O1568      C1571   1.266       .  A
O1568     Cd1573   2.495       .  S
C1569      O1578   1.265       .  A
C1569      O1574   1.264       .  A
C1569      C2730   1.486       .  S
O1570      C1576   1.265       .  A
O1570     Cd1573   2.475       .  S
C1571      O1579   1.265       .  A
C1571      C2674   1.489       .  S
C1572      O1577   1.265       .  A
C1572      O1575   1.266       .  A
C1572      C2660   1.484       .  S
Cd1573     O1580   2.463       .  S
Cd1573     O1579   2.450       .  S
Cd1573     O1578   2.459       .  S
Cd1573     O1574   2.485       .  S
Cd1573     O1577   2.467       .  S
Cd1573     O1575   2.463       .  S
C1576      O1580   1.262       .  A
C1576      C2646   1.484       .  S
O1581      C1584   1.268       .  A
O1581     Cd1586   2.517       .  S
C1582      O1591   1.265       .  A
C1582      O1587   1.265       .  A
C1582      C2604   1.488       .  S
O1583      C1589   1.266       .  A
O1583     Cd1586   2.503       .  S
C1584      O1592   1.264       .  A
C1584      C2632   1.488       .  S
C1585      O1590   1.265       .  A
C1585      C2590   1.481       .  S
Cd1586     O1593   2.432       .  S
Cd1586     O1592   2.434       .  S
Cd1586     O1590   2.468       .  S
C1589      O1593   1.265       .  A
C1589      C2621   1.487       .  S
O1594      C1597   1.266       .  A
O1594     Cd1599   2.487       .  S
C1595      O1604   1.266       .  A
C1595      O1600   1.264       .  A
C1595      C2635   1.483       .  S
O1596      C1602   1.266       .  A
O1596     Cd1599   2.465       .  S
C1597      O1605   1.266       .  A
C1597      C2677   1.489       .  S
C1598      O1603   1.267       .  A
C1598      O1601   1.265       .  A
C1598      C2663   1.484       .  S
Cd1599     O1606   2.465       .  S
Cd1599     O1605   2.465       .  S
Cd1599     O1604   2.472       .  S
Cd1599     O1600   2.452       .  S
Cd1599     O1603   2.507       .  S
Cd1599     O1601   2.427       .  S
C1602      O1606   1.263       .  A
C1602      C2576   1.485       .  S
O1607      C1610   1.264       .  A
O1607     Cd1612   2.453       .  S
C1608      O1617   1.267       .  A
C1608      O1613   1.266       .  A
C1608      C2562   1.486       .  S
O1609      C1615   1.263       .  A
O1609     Cd1612   2.446       .  S
C1610      O1618   1.265       .  A
C1610      C2719   1.480       .  S
C1611      O1616   1.263       .  A
C1611      O1614   1.265       .  A
C1611      C2705   1.482       .  S
Cd1612     O1619   2.482       .  S
Cd1612     O1618   2.443       .  S
Cd1612     O1617   2.488       .  S
Cd1612     O1613   2.438       .  S
Cd1612     O1616   2.428       .  S
Cd1612     O1614   2.511       .  S
C1615      O1619   1.264       .  A
C1615      C2859   1.482       .  S
O1620      C1623   1.268       .  A
O1620     Cd1625   2.493       .  S
C1621      O1630   1.264       .  A
C1621      O1626   1.266       .  A
C1621      C2901   1.488       .  S
O1622      C1628   1.264       .  A
O1622     Cd1625   2.451       .  S
C1623      O1631   1.264       .  A
C1623      C2618   1.484       .  S
C1624      O1629   1.265       .  A
C1624      O1627   1.265       .  A
C1624      C2607   1.490       .  S
Cd1625     O1632   2.478       .  S
Cd1625     O1631   2.448       .  S
Cd1625     O1630   2.476       .  S
Cd1625     O1626   2.479       .  S
Cd1625     O1629   2.485       .  S
Cd1625     O1627   2.469       .  S
C1628      O1632   1.267       .  A
C1628      C2565   1.483       .  S
O1633      C1636   1.265       .  A
O1633     Cd1638   2.480       .  S
C1634      O1643   1.263       .  A
C1634      O1639   1.264       .  A
C1634      C2548   1.487       .  S
O1635      C1641   1.266       .  A
O1635     Cd1638   2.439       .  S
C1636      O1644   1.267       .  A
C1636      C2534   1.492       .  S
C1637      O1642   1.265       .  A
C1637      O1640   1.264       .  A
C1637      C2506   1.489       .  S
Cd1638     O1645   2.475       .  S
Cd1638     O1644   2.484       .  S
Cd1638     O1643   2.484       .  S
Cd1638     O1639   2.473       .  S
Cd1638     O1642   2.505       .  S
Cd1638     O1640   2.452       .  S
C1641      O1645   1.266       .  A
C1641      C2520   1.484       .  S
O1646      C1649   1.266       .  A
O1646     Cd1651   2.495       .  S
C1647      O1656   1.265       .  A
C1647      O1652   1.268       .  A
C1647      C2551   1.486       .  S
O1648      C1654   1.266       .  A
O1648     Cd1651   2.473       .  S
C1649      O1657   1.264       .  A
C1649      C2495   1.490       .  S
C1650      O1655   1.266       .  A
C1650      O1653   1.265       .  A
C1650      C2464   1.487       .  S
Cd1651     O1658   2.445       .  S
Cd1651     O1657   2.465       .  S
Cd1651     O1656   2.469       .  S
Cd1651     O1652   2.454       .  S
Cd1651     O1655   2.458       .  S
Cd1651     O1653   2.482       .  S
C1654      O1658   1.264       .  A
C1654      C2478   1.481       .  S
O1659      C1662   1.265       .  A
O1659     Cd1664   2.460       .  S
C1660      O1669   1.263       .  A
C1660      O1665   1.263       .  A
C1660      C2523   1.484       .  S
O1661      C1667   1.266       .  A
O1661     Cd1664   2.472       .  S
C1662      O1670   1.263       .  A
C1662      C2688   1.485       .  S
C1663      O1668   1.267       .  A
C1663      C2537   1.492       .  S
Cd1664     O1671   2.469       .  S
Cd1664     O1670   2.474       .  S
Cd1664     O1669   2.452       .  S
Cd1664     O1665   2.483       .  S
Cd1664     O1666   2.506       .  S
C1667      O1671   1.263       .  A
C1667      C2450   1.485       .  S
O1672      C1675   1.266       .  A
O1672     Cd1677   2.480       .  S
C1673      O1682   1.265       .  A
C1673      O1678   1.264       .  A
C1673      C2453   1.486       .  S
O1674      C1680   1.265       .  A
O1674     Cd1677   2.462       .  S
C1675      O1683   1.265       .  A
C1675      C2439   1.485       .  S
C1676      O1681   1.265       .  A
C1676      O1679   1.263       .  A
C1676      C2649   1.487       .  S
Cd1677     O1684   2.436       .  S
Cd1677     O1683   2.444       .  S
Cd1677     O1682   2.460       .  S
Cd1677     O1678   2.490       .  S
Cd1677     O1681   2.503       .  S
Cd1677     O1679   2.450       .  S
C1680      O1684   1.266       .  A
C1680      C2422   1.482       .  S
O1685      C1688   1.265       .  A
O1685     Cd1690   2.485       .  S
C1686      O1695   1.265       .  A
C1686      O1691   1.264       .  A
C1686      C2408   1.487       .  S
O1687      C1693   1.266       .  A
O1687     Cd1690   2.463       .  S
C1688      O1696   1.265       .  A
C1688      C2436   1.484       .  S
C1689      O1694   1.265       .  A
C1689      O1692   1.264       .  A
C1689      C2394   1.488       .  S
Cd1690     O1697   2.452       .  S
Cd1690     O1696   2.445       .  S
Cd1690     O1695   2.477       .  S
Cd1690     O1691   2.482       .  S
Cd1690     O1694   2.465       .  S
Cd1690     O1692   2.487       .  S
C1693      O1697   1.267       .  A
C1693      C2425   1.480       .  S
O1698      C1701   1.267       .  A
O1698     Cd1703   2.458       .  S
C1699      O1704   1.264       .  A
C1699      C2492   1.488       .  S
O1700      C1706   1.268       .  A
O1700     Cd1703   2.492       .  S
C1701      O1709   1.266       .  A
C1701      C2411   1.490       .  S
C1702      O1707   1.268       .  A
C1702      O1705   1.262       .  A
C1702      C2481   1.479       .  S
Cd1703     O1709   2.487       .  S
Cd1703     O1708   2.512   1_556  S
Cd1703     O1707   2.513       .  S
Cd1703     O1705   2.391       .  S
C1706      C2380   1.485       .  S
O1711      C1714   1.267       .  A
O1711     Cd1716   2.450       .  S
C1712      O1721   1.265       .  A
C1712      O1717   1.266       .  A
C1712      C2509   1.488       .  S
O1713      C1719   1.264       .  A
O1713     Cd1716   2.479       .  S
C1714      O1722   1.265       .  A
C1714      C2338   1.480       .  S
C1715      O1720   1.265       .  A
C1715      O1718   1.265       .  A
C1715      C2352   1.488       .  S
Cd1716     O1723   2.462       .  S
Cd1716     O1722   2.446       .  S
Cd1716     O1721   2.477       .  S
Cd1716     O1717   2.466       .  S
Cd1716     O1720   2.456       .  S
Cd1716     O1718   2.488       .  S
C1719      O1723   1.266       .  A
C1719      C2366   1.484       .  S
O1724      C1727   1.265       .  A
O1724     Cd1729   2.449       .  S
C1725      O1734   1.265       .  A
C1725      O1730   1.266       .  A
C1725      C2324   1.482       .  S
O1726      C1732   1.267       .  A
O1726     Cd1729   2.459       .  S
C1727      O1735   1.265       .  A
C1727      C2369   1.487       .  S
C1728      O1733   1.265       .  A
C1728      O1731   1.263       .  A
C1728      C2467   1.488       .  S
Cd1729     O1736   2.435       .  S
Cd1729     O1735   2.487       .  S
Cd1729     O1734   2.446       .  S
Cd1729     O1730   2.475       .  S
Cd1729     O1733   2.498       .  S
Cd1729     O1731   2.450       .  S
C1732      O1736   1.263       .  A
C1732      C2310   1.476       .  S
O1737      C1740   1.267       .  A
O1737     Cd1742   2.469       .  S
C1738      O1747   1.263       .  A
C1738      O1743   1.266       .  A
C1738      C2282   1.491       .  S
O1739      C1745   1.267       .  A
O1739     Cd1742   2.425       .  S
C1740      O1748   1.263       .  A
C1740      C2296   1.488       .  S
C1741      O1746   1.264       .  A
C1741      O1744   1.265       .  A
C1741      C2803   1.485       .  S
Cd1742     O1749   2.476       .  S
Cd1742     O1748   2.483       .  S
Cd1742     O1747   2.456       .  S
Cd1742     O1743   2.514       .  S
Cd1742     O1746   2.445       .  S
Cd1742     O1744   2.488       .  S
C1745      O1749   1.266       .  A
C1745      C2268   1.481       .  S
O1750      C1753   1.267       .  A
C1751      O1760   1.266       .  A
C1751      O1756   1.262       .  A
C1751      C2299   1.487       .  S
O1752      C1758   1.265       .  A
O1752     Cd1755   2.485       .  S
C1753      O1761   1.267       .  A
C1753      C2327   1.480       .  S
C1754      O1759   1.263       .  A
C1754      O1757   1.263       .  A
C1754      C2313   1.474       .  S
Cd1755     O1760   2.485       .  S
Cd1755     O1756   2.462       .  S
Cd1755     O1759   2.479       .  S
Cd1755     O1757   2.430       .  S
C1758      C2786   1.486       .  S
O1763      C1766   1.266       .  A
O1763     Cd1768   2.517       .  S
C1764      O1773   1.265       .  A
C1764      O1769   1.265       .  A
C1764      C2240   1.484       .  S
O1765      C1771   1.268       .  A
O1765     Cd1768   2.434       .  S
C1766      O1774   1.259       .  A
C1766      C2341   1.478       .  S
C1767      O1772   1.264   1_556  A
C1767      C2355   1.489       .  S
Cd1768     O1775   2.479       .  S
Cd1768     O1774   2.397       .  S
Cd1768     O1773   2.441       .  S
Cd1768     O1769   2.480       .  S
Cd1768     O1770   2.473       .  S
C1771      O1775   1.266       .  A
C1771      C2257   1.485       .  S
O1776      C1779   1.266       .  A
O1776     Cd1781   2.470       .  S
C1777      O1786   1.266       .  A
C1777      O1782   1.264       .  A
C1777      C2285   1.489       .  S
O1778      C1784   1.268       .  A
O1778     Cd1781   2.464       .  S
C1779      O1787   1.264       .  A
C1779      C2254   1.485       .  S
C1780      O1785   1.265       .  A
C1780      O1783   1.265       .  A
C1780      C2229   1.488       .  S
Cd1781     O1788   2.450       .  S
Cd1781     O1787   2.468       .  S
Cd1781     O1786   2.508       .  S
Cd1781     O1782   2.463       .  S
Cd1781     O1785   2.500       .  S
Cd1781     O1783   2.448       .  S
C1784      O1788   1.263       .  A
C1784      C2271   1.483       .  S
O1789      C1792   1.265       .  A
C1790      O1799   1.264       .  A
C1790      O1795   1.266       .  A
C1790      C2215   1.483       .  S
O1791      C1797   1.267       .  A
O1791     Cd1794   2.461       .  S
C1792      C2201   1.489       .  S
C1793      O1798   1.267       .  A
C1793      O1796   1.265       .  A
C1793      C2184   1.482       .  S
Cd1794     O1801   2.453       .  S
Cd1794     O1800   2.489       .  S
Cd1794     O1799   2.465       .  S
Cd1794     O1795   2.472       .  S
Cd1794     O1798   2.490       .  S
Cd1794     O1796   2.420       .  S
C1797      O1801   1.264       .  A
C1797      C2744   1.483       .  S
O1802      C1805   1.265       .  A
O1802     Cd1807   2.451       .  S
C1803      O1812   1.264       .  A
C1803      O1808   1.268       .  A
C1803      C2173   1.494       .  S
O1804      C1810   1.265       .  A
O1804     Cd1807   2.492       .  S
C1805      O1813   1.264       .  A
C1805      C2212   1.486       .  S
C1806      O1811   1.265       .  A
C1806      O1809   1.264       .  A
C1806      C2761   1.486       .  S
Cd1807     O1814   2.435       .  S
Cd1807     O1813   2.488       .  S
Cd1807     O1812   2.487       .  S
Cd1807     O1808   2.491       .  S
Cd1807     O1811   2.495       .  S
Cd1807     O1809   2.437       .  S
C1810      O1814   1.264       .  A
C1810      C2159   1.481       .  S
O1815      C1818   1.267       .  A
O1815     Cd1820   2.471       .  S
C1816      O1825   1.263       .  A
C1816      O1821   1.266       .  A
C1816      C2142   1.492       .  S
O1817      C1823   1.265       .  A
O1817     Cd1820   2.507       .  S
C1818      O1826   1.266       .  A
C1818      C2170   1.493       .  S
C1819      O1824   1.265       .  A
C1819      O1822   1.266       .  A
C1819      C2156   1.484       .  S
Cd1820     O1827   2.453       .  S
Cd1820     O1826   2.501       .  S
Cd1820     O1825   2.464       .  S
Cd1820     O1821   2.522       .  S
Cd1820     O1824   2.458       .  S
Cd1820     O1822   2.477       .  S
C1823      O1827   1.263       .  A
C1823      C2397   1.489       .  S
O1828      C1831   1.264       .  A
C1829      O1838   1.264       .  A
C1829      O1834   1.267       .  A
C1829      C2145   1.491       .  S
O1830      C1836   1.264       .  A
O1830     Cd1833   2.443       .  S
C1831      O1839   1.266       .  A
C1831      C2117   1.485       .  S
C1832      O1837   1.265       .  A
C1832      O1835   1.265       .  A
C1832      C2131   1.482       .  S
Cd1833     O1838   2.460       .  S
Cd1833     O1834   2.500       .  S
Cd1833     O1837   2.454       .  S
Cd1833     O1835   2.463       .  S
C1836      C2383   1.484       .  S
O1841      C1844   1.265       .  A
O1841     Cd1846   2.461       .  S
C1842      O1851   1.265       .  A
C1842      O1847   1.265       .  A
C1842      C2103   1.485       .  S
O1843      C1849   1.266       .  A
O1843     Cd1846   2.453       .  S
C1844      O1852   1.265       .  A
C1844      C2114   1.482       .  S
C1845      O1850   1.263       .  A
C1845      O1848   1.263       .  A
C1845      C2128   1.481       .  S
Cd1846     O1853   2.496       .  S
Cd1846     O1852   2.449       .  S
Cd1846     O1851   2.481       .  S
Cd1846     O1847   2.455       .  S
Cd1846     O1850   2.438       .  S
Cd1846     O1848   2.486       .  S
C1849      O1853   1.267       .  A
C1849      C2086   1.489       .  S
O1854      C1857   1.266       .  A
O1854     Cd1859   2.448       .  S
C1855      O1864   1.265       .  A
C1855      O1860   1.265       .  A
C1855      C2198   1.490       .  S
O1856      C1862   1.265       .  A
O1856     Cd1859   2.467       .  S
C1857      O1865   1.265       .  A
C1857      C2100   1.484       .  S
C1858      O1863   1.266       .  A
C1858      O1861   1.265       .  A
C1858      C2072   1.484       .  S
Cd1859     O1866   2.462       .  S
Cd1859     O1865   2.472       .  S
Cd1859     O1864   2.462       .  S
Cd1859     O1860   2.496       .  S
Cd1859     O1863   2.494       .  S
Cd1859     O1861   2.433       .  S
C1862      O1866   1.263       .  A
C1862      C2187   1.484       .  S
O1867      C1870   1.264       .  A
O1867     Cd1872   2.485       .  S
C1868      O1877   1.267       .  A
C1868      O1873   1.265       .  A
C1868      C2058   1.486       .  S
O1869      C1875   1.263       .  A
O1869     Cd1872   2.412       .  S
C1870      O1878   1.265       .  A
C1870      C2047   1.487       .  S
C1871      O1876   1.265       .  A
C1871      O1874   1.265       .  A
C1871      C2089   1.488       .  S
Cd1872     O1879   2.509       .  S
Cd1872     O1878   2.459       .  S
Cd1872     O1877   2.491       .  S
Cd1872     O1873   2.435       .  S
Cd1872     O1876   2.482       .  S
Cd1872     O1874   2.459       .  S
C1875      O1879   1.266       .  A
C1875      C2030   1.482       .  S
O1880      C1883   1.266       .  A
O1880     Cd1885   2.457       .  S
C1881      O1890   1.264       .  A
C1881      O1886   1.268       .  A
C1881      C2002   1.484       .  S
O1882      C1888   1.266       .  A
O1882     Cd1885   2.486       .  S
C1883      O1891   1.264       .  A
C1883      C2075   1.484       .  S
C1884      O1889   1.265       .  A
C1884      O1887   1.265       .  A
C1884      C2016   1.483       .  S
Cd1885     O1892   2.447       .  S
Cd1885     O1891   2.461       .  S
Cd1885     O1890   2.447       .  S
Cd1885     O1886   2.475       .  S
Cd1885     O1889   2.433       .  S
Cd1885     O1887   2.494       .  S
C1888      O1892   1.264       .  A
C1888      C2061   1.483       .  S
O1893      C1896   1.265   1_554  A
C1894      O1903   1.266       .  A
C1894      O1899   1.266       .  A
C1894      C1988   1.484       .  S
O1895      C1901   1.265       .  A
O1895     Cd1898   2.508       .  S
C1896      C2019   1.484       .  S
C1897      O1902   1.265       .  A
C1897      O1900   1.265       .  A
C1897      C2243   1.483       .  S
Cd1898     O1905   2.432       .  S
Cd1898     O1904   2.473       .  S
Cd1898     O1903   2.479       .  S
Cd1898     O1899   2.449       .  S
Cd1898     O1902   2.442       .  S
Cd1898     O1900   2.476       .  S
C1901      O1905   1.263       .  A
C1901      C2005   1.486       .  S
O1906      C1909   1.265       .  A
O1906     Cd1911   2.474       .  S
C1907      O1916   1.266       .  A
C1907      O1912   1.266       .  A
C1907      C1991   1.486       .  S
O1908      C1914   1.262       .  A
O1908     Cd1911   2.456       .  S
C1909      O1917   1.263       .  A
C1909      C1974   1.490       .  S
C1910      O1915   1.266       .  A
C1910      O1913   1.264       .  A
C1910      C2226   1.489       .  S
Cd1911     O1918   2.467       .  S
Cd1911     O1917   2.496       .  S
Cd1911     O1916   2.450       .  S
Cd1911     O1912   2.480       .  S
Cd1911     O1915   2.479       .  S
Cd1911     O1913   2.470       .  S
C1914      O1918   1.266       .  A
C1914      C1960   1.480       .  S
O1919      C1922   1.265       .  A
O1919     Cd1924   2.492       .  S
C1920      O1929   1.264       .  A
C1920      O1925   1.267       .  A
C1920      C1946   1.485       .  S
O1921      C1927   1.264       .  A
O1921     Cd1924   2.401       .  S
C1922      O1930   1.266       .  A
C1922      C1977   1.489       .  S
C1923      O1928   1.267       .  A
C1923      O1926   1.266       .  A
C1923      C2579   1.486       .  S
Cd1924     O1931   2.491       .  S
Cd1924     O1930   2.467       .  S
Cd1924     O1929   2.459       .  S
Cd1924     O1925   2.465       .  S
Cd1924     O1928   2.487       .  S
Cd1924     O1926   2.444       .  S
C1927      O1931   1.268       .  A
C1927      C1963   1.481       .  S
O1932      C1935   1.267       .  A
C1933      O1942   1.264       .  A
C1933      O1938   1.269       .  A
C1933      C1949   1.480       .  S
O1934      C1940   1.269       .  A
O1934     Cd1937   2.466       .  S
C1935      O1943   1.265       .  A
C1935      C2044   1.486       .  S
C1936      O1941   1.268       .  A
C1936      C2593   1.481       .  S
Cd1937     O1944   2.428       .  S
Cd1937     O1942   2.447       .  S
Cd1937     O1938   2.455       .  S
Cd1937     O1941   2.448       .  S
C1940      O1944   1.264       .  A
C1940      C2033   1.483       .  S
C1945      C1946   1.405       .  A
C1945      C1950   1.400       .  A
C1945      H1952   1.081       .  S
C1946      C1947   1.415       .  A
C1947      C1948   1.399       .  A
C1947      N1954   1.429       .  S
C1948      C1949   1.402       .  A
C1948      H1953   1.081       .  S
C1949      C1950   1.413       .  A
C1950      N1951   1.429       .  S
N1951      O1955   1.262       .  A
N1951      O1956   1.262       .  A
N1954      O1957   1.262       .  A
C1959      C1960   1.405       .  A
C1959      H1966   1.083       .  S
C1960      C1961   1.413       .  A
C1961      N1968   1.428       .  S
C1962      C1963   1.403   1_545  A
C1962      H1967   1.083   1_545  S
C1963      C1964   1.412       .  A
C1964      N1965   1.428       .  S
N1965      O1969   1.262       .  A
N1965      O1970   1.262       .  A
N1968      O1972   1.262       .  A
N1968      O1971   1.262       .  A
C1973      C1974   1.405       .  A
C1973      C1978   1.402   1_545  A
C1973      H1980   1.084       .  S
C1974      C1975   1.415   1_545  A
C1975      C1976   1.402       .  A
C1975      N1982   1.428       .  S
C1976      C1977   1.405       .  A
C1976      H1981   1.084       .  S
C1977      C1978   1.415       .  A
C1978      N1979   1.429       .  S
N1979      O1983   1.262       .  A
N1979      O1984   1.262   1_565  A
N1982      O1986   1.262   1_565  A
N1982      O1985   1.262       .  A
C1987      C1988   1.403       .  A
C1987      C1992   1.399       .  A
C1987      H1994   1.084       .  S
C1988      C1989   1.413       .  A
C1989      C1990   1.400       .  A
C1989      N1996   1.428       .  S
C1990      C1991   1.405       .  A
C1990      H1995   1.084       .  S
C1991      C1992   1.414       .  A
C1992      N1993   1.427       .  S
N1993      O1997   1.261       .  A
N1993      O1998   1.262       .  A
N1996      O2000   1.262       .  A
N1996      O1999   1.262       .  A
C2001      C2002   1.405       .  A
C2001      C2006   1.404       .  A
C2001      H2008   1.084       .  S
C2002      C2003   1.413       .  A
C2003      C2004   1.396       .  A
C2003      N2010   1.429       .  S
C2004      C2005   1.404       .  A
C2004      H2009   1.084       .  S
C2005      C2006   1.415       .  A
C2006      N2007   1.429       .  S
N2007      O2011   1.262       .  A
N2007      O2012   1.262       .  A
N2010      O2014   1.262       .  A
N2010      O2013   1.262       .  A
C2015      C2016   1.404       .  A
C2015      C2020   1.397       .  A
C2015      H2022   1.084       .  S
C2016      C2017   1.413       .  A
C2017      C2018   1.402       .  A
C2017      N2024   1.429       .  S
C2018      C2019   1.406       .  A
C2018      H2023   1.083       .  S
C2019      C2020   1.413       .  A
N2021      O2025   1.262       .  A
N2021      O2026   1.262       .  A
N2024      O2028   1.262       .  A
N2024      O2027   1.262       .  A
C2029      C2030   1.403       .  A
C2029      C2034   1.394       .  A
C2029      H2036   1.084       .  S
C2030      C2031   1.413       .  A
C2031      C2032   1.403       .  A
C2031      N2038   1.428       .  S
C2032      C2033   1.406       .  A
C2032      H2037   1.084       .  S
C2033      C2034   1.414       .  A
C2034      N2035   1.429       .  S
N2035      O2039   1.262       .  A
N2035      O2040   1.262       .  A
N2038      O2042   1.262       .  A
N2038      O2041   1.262       .  A
C2043      C2044   1.405       .  A
C2043      C2048   1.401       .  A
C2043      H2050   1.080       .  S
C2044      C2045   1.414       .  A
C2045      C2046   1.400       .  A
C2045      N2052   1.429       .  S
C2046      C2047   1.405       .  A
C2046      H2051   1.080       .  S
C2047      C2048   1.414       .  A
C2048      N2049   1.429       .  S
N2049      O2053   1.262       .  A
N2049      O2054   1.262       .  A
N2052      O2056   1.262       .  A
N2052      O2055   1.262       .  A
C2057      C2058   1.406       .  A
C2057      C2062   1.399       .  A
C2057      H2064   1.084       .  S
C2058      C2059   1.413       .  A
C2059      C2060   1.401   1_565  A
C2059      N2066   1.429       .  S
C2060      C2061   1.406       .  A
C2060      H2065   1.085       .  S
C2061      C2062   1.411   1_545  A
C2062      N2063   1.429   1_565  S
N2063      O2067   1.262       .  A
N2063      O2068   1.262       .  A
N2066      O2070   1.262       .  A
N2066      O2069   1.262       .  A
C2071      C2072   1.405       .  A
C2071      C2076   1.397       .  A
C2071      H2078   1.082       .  S
C2072      C2073   1.413       .  A
C2073      C2074   1.401       .  A
C2073      N2080   1.429       .  S
C2074      C2075   1.406       .  A
C2074      H2079   1.082       .  S
C2075      C2076   1.413       .  A
C2076      N2077   1.429       .  S
N2077      O2081   1.262       .  A
N2077      O2082   1.262       .  A
N2080      O2084   1.262       .  A
N2080      O2083   1.262       .  A
C2085      C2086   1.406       .  A
C2085      C2090   1.401       .  A
C2085      H2092   1.081       .  S
C2086      C2087   1.414       .  A
C2087      C2088   1.402       .  A
C2087      N2094   1.429       .  S
C2088      C2089   1.406       .  A
C2088      H2093   1.081       .  S
C2089      C2090   1.413       .  A
C2090      N2091   1.429       .  S
N2091      O2095   1.262       .  A
N2091      O2096   1.262       .  A
N2094      O2098   1.262       .  A
N2094      O2097   1.262       .  A
C2099      C2100   1.405       .  A
C2099      C2104   1.399   1_545  A
C2099      H2106   1.082       .  S
C2100      C2101   1.414       .  A
C2101      C2102   1.400   1_545  A
C2101      N2108   1.429       .  S
C2102      C2103   1.406       .  A
C2102      H2107   1.082       .  S
C2103      C2104   1.413       .  A
C2104      N2105   1.429       .  S
N2105      O2109   1.262       .  A
N2105      O2110   1.262       .  A
N2108      O2112   1.262       .  A
N2108      O2111   1.262       .  A
C2113      C2114   1.405       .  A
C2113      C2118   1.401       .  A
C2113      H2120   1.080       .  S
C2114      C2115   1.412       .  A
C2115      C2116   1.398       .  A
C2115      N2122   1.429       .  S
C2116      C2117   1.405       .  A
C2116      H2121   1.080       .  S
C2117      C2118   1.415       .  A
C2118      N2119   1.429       .  S
N2119      O2123   1.262       .  A
N2119      O2124   1.262       .  A
N2122      O2126   1.262       .  A
N2122      O2125   1.262       .  A
C2127      C2128   1.404       .  A
C2127      C2132   1.396       .  A
C2127      H2134   1.084       .  S
C2128      C2129   1.413       .  A
C2129      C2130   1.401       .  A
C2129      N2136   1.429       .  S
C2130      C2131   1.406       .  A
C2130      H2135   1.083       .  S
C2131      C2132   1.412       .  A
C2132      N2133   1.429       .  S
N2133      O2137   1.262       .  A
N2133      O2138   1.262       .  A
N2136      O2140   1.262       .  A
N2136      O2139   1.262       .  A
C2141      C2142   1.407       .  A
C2141      C2146   1.402       .  A
C2141      H2148   1.083       .  S
C2142      C2143   1.414       .  A
C2143      C2144   1.404       .  A
C2143      N2150   1.429       .  S
C2144      C2145   1.407       .  A
C2144      H2149   1.083       .  S
C2145      C2146   1.412       .  A
C2146      N2147   1.428       .  S
N2147      O2151   1.262   1_556  A
N2150      O2154   1.262       .  A
N2150      O2153   1.262       .  A
C2155      C2156   1.407       .  A
C2155      H2162   1.083   1_565  S
C2156      C2157   1.413   1_556  A
C2157      N2164   1.428       .  S
C2158      C2159   1.403   1_565  A
C2158      H2163   1.084       .  S
C2159      C2160   1.412       .  A
C2160      N2161   1.429       .  S
N2161      O2165   1.262       .  A
N2161      O2166   1.262       .  A
N2164      O2168   1.262       .  A
N2164      O2167   1.262       .  A
C2169      C2170   1.405       .  A
C2169      C2174   1.402   1_565  A
C2169      H2176   1.083       .  S
C2170      C2171   1.416       .  A
C2171      C2172   1.405   1_565  A
C2171      N2178   1.429       .  S
C2172      C2173   1.406       .  A
C2172      H2177   1.083       .  S
C2173      C2174   1.416       .  A
C2174      N2175   1.429       .  S
N2175      O2179   1.262       .  A
N2175      O2180   1.262       .  A
N2178      O2182   1.262       .  A
N2178      O2181   1.262       .  A
C2183      C2184   1.404       .  A
C2183      C2188   1.397       .  A
C2183      H2190   1.083       .  S
C2184      C2185   1.412       .  A
C2185      C2186   1.401       .  A
C2185      N2192   1.429       .  S
C2186      C2187   1.406       .  A
C2186      H2191   1.082       .  S
C2187      C2188   1.414       .  A
C2188      N2189   1.429       .  S
N2189      O2193   1.262       .  A
N2189      O2194   1.262       .  A
N2192      O2196   1.262       .  A
N2192      O2195   1.262       .  A
C2197      C2198   1.407       .  A
C2197      C2202   1.402       .  A
C2197      H2204   1.081       .  S
C2198      C2199   1.414       .  A
C2199      C2200   1.402       .  A
C2199      N2206   1.429       .  S
C2200      C2201   1.406       .  A
C2200      H2205   1.081       .  S
C2201      C2202   1.413       .  A
C2202      N2203   1.429       .  S
N2203      O2207   1.262       .  A
N2203      O2208   1.262       .  A
N2206      O2210   1.262       .  A
N2206      O2209   1.262       .  A
C2211      C2212   1.405       .  A
C2211      C2216   1.398       .  A
C2211      H2218   1.081       .  S
C2212      C2213   1.415       .  A
C2213      C2214   1.402       .  A
C2213      N2220   1.429       .  S
C2214      C2215   1.405       .  A
C2214      H2219   1.081       .  S
C2215      C2216   1.412       .  A
C2216      N2217   1.429       .  S
N2217      O2221   1.262       .  A
N2217      O2222   1.262       .  A
N2220      O2224   1.262       .  A
N2220      O2223   1.262       .  A
C2225      C2226   1.406       .  A
C2225      C2230   1.404       .  A
C2225      H2232   1.084       .  S
C2226      C2227   1.414       .  A
C2227      C2228   1.398       .  A
C2227      N2234   1.429       .  S
C2228      C2229   1.404       .  A
C2228      H2233   1.084       .  S
C2229      C2230   1.415       .  A
C2230      N2231   1.429       .  S
N2231      O2235   1.262       .  A
N2231      O2236   1.262       .  A
N2234      O2238   1.262       .  A
N2234      O2237   1.262       .  A
C2239      C2240   1.405       .  A
C2239      C2244   1.399       .  A
C2239      H2246   1.084       .  S
C2240      C2241   1.413       .  A
C2241      C2242   1.399       .  A
C2241      N2248   1.429       .  S
C2242      C2243   1.405       .  A
C2242      H2247   1.084       .  S
C2243      C2244   1.413       .  A
C2244      N2245   1.429       .  S
N2245      O2249   1.262       .  A
N2245      O2250   1.262       .  A
N2248      O2251   1.262       .  A
C2253      C2254   1.405       .  A
C2253      C2258   1.403       .  A
C2253      H2260   1.082       .  S
C2254      C2255   1.413       .  A
C2255      C2256   1.396       .  A
C2255      N2262   1.427       .  S
C2256      C2257   1.402       .  A
C2256      H2261   1.082       .  S
C2257      C2258   1.415       .  A
C2258      N2259   1.428       .  S
N2259      O2263   1.262       .  A
N2259      O2264   1.262       .  A
N2262      O2266   1.261       .  A
N2262      O2265   1.262       .  A
C2267      C2272   1.395       .  A
C2267      H2274   1.084       .  S
C2268      C2269   1.414       .  A
C2269      N2276   1.428       .  S
C2270      C2271   1.405       .  A
C2270      H2275   1.084       .  S
C2271      C2272   1.414       .  A
C2272      N2273   1.427       .  S
N2273      O2277   1.262       .  A
N2273      O2278   1.261       .  A
N2276      O2280   1.262   1_556  A
N2276      O2279   1.262       .  A
C2281      C2282   1.407       .  A
C2281      C2286   1.402       .  A
C2281      H2288   1.082       .  S
C2282      C2283   1.413       .  A
C2283      C2284   1.403       .  A
C2283      N2290   1.429       .  S
C2284      C2285   1.407       .  A
C2284      H2289   1.082       .  S
C2285      C2286   1.412       .  A
C2286      N2287   1.429       .  S
N2287      O2291   1.262       .  A
N2287      O2292   1.262       .  A
N2290      O2294   1.262       .  A
N2290      O2293   1.262       .  A
C2295      C2296   1.404       .  A
C2295      C2300   1.399       .  A
C2295      H2302   1.084       .  S
C2296      C2297   1.416       .  A
C2297      C2298   1.402       .  A
C2297      N2304   1.429       .  S
C2298      C2299   1.404       .  A
C2298      H2303   1.084       .  S
C2299      C2300   1.414       .  A
C2300      N2301   1.429       .  S
N2301      O2305   1.262       .  A
N2301      O2306   1.262       .  A
N2304      O2308   1.262       .  A
N2304      O2307   1.262       .  A
C2309      C2310   1.404       .  A
C2309      C2314   1.400       .  A
C2309      H2316   1.083       .  S
C2310      C2311   1.412       .  A
C2311      C2312   1.394       .  A
C2311      N2318   1.429       .  S
C2312      C2313   1.402       .  A
C2312      H2317   1.083       .  S
C2313      C2314   1.411       .  A
C2314      N2315   1.429       .  S
N2315      O2319   1.262       .  A
N2315      O2320   1.262       .  A
N2318      O2322   1.261       .  A
N2318      O2321   1.262       .  A
C2323      C2324   1.405       .  A
C2323      C2328   1.399       .  A
C2323      H2330   1.081       .  S
C2324      C2325   1.412       .  A
C2325      C2326   1.399       .  A
C2325      N2332   1.429       .  S
C2326      C2327   1.404       .  A
C2326      H2331   1.081       .  S
C2327      C2328   1.412       .  A
C2328      N2329   1.429       .  S
N2329      O2333   1.262       .  A
N2329      O2334   1.262       .  A
N2332      O2336   1.262       .  A
N2332      O2335   1.262       .  A
C2337      C2338   1.407       .  A
C2337      C2342   1.401       .  A
C2337      H2344   1.084       .  S
C2338      C2339   1.412       .  A
C2339      C2340   1.393       .  A
C2339      N2346   1.429       .  S
C2340      C2341   1.404       .  A
C2340      H2345   1.084       .  S
C2341      C2342   1.410       .  A
C2342      N2343   1.428       .  S
N2343      O2347   1.262       .  A
N2343      O2348   1.262       .  A
N2346      O2350   1.262       .  A
N2346      O2349   1.262       .  A
C2351      C2352   1.405       .  A
C2351      C2356   1.400       .  A
C2351      H2358   1.084       .  S
C2352      C2353   1.414       .  A
C2353      C2354   1.402       .  A
C2353      N2360   1.429       .  S
C2354      C2355   1.406       .  A
C2354      H2359   1.084       .  S
C2355      C2356   1.415       .  A
C2356      N2357   1.429       .  S
N2357      O2361   1.262       .  A
N2357      O2362   1.262       .  A
N2360      O2364   1.262       .  A
N2360      O2363   1.262       .  A
C2365      C2366   1.404       .  A
C2365      C2370   1.401       .  A
C2365      H2372   1.084       .  S
C2366      C2367   1.413       .  A
C2367      C2368   1.400       .  A
C2367      N2374   1.429       .  S
C2368      C2369   1.406       .  A
C2368      H2373   1.084       .  S
C2369      C2370   1.414       .  A
C2370      N2371   1.429       .  S
N2371      O2375   1.262       .  A
N2371      O2376   1.262       .  A
N2374      O2378   1.262       .  A
N2374      O2377   1.262       .  A
C2379      C2380   1.406       .  A
C2379      C2384   1.398       .  A
C2379      H2386   1.084   1_556  S
C2380      C2381   1.412       .  A
C2381      C2382   1.400       .  A
C2382      C2383   1.406       .  A
C2383      C2384   1.412       .  A
C2384      N2385   1.429   1_556  S
N2385      O2389   1.262       .  A
N2385      O2390   1.262   1_554  A
N2388      O2391   1.262       .  A
C2393      C2394   1.406       .  A
C2393      C2398   1.402       .  A
C2393      H2400   1.084       .  S
C2394      C2395   1.414       .  A
C2395      C2396   1.400       .  A
C2395      N2402   1.429       .  S
C2396      C2397   1.406       .  A
C2396      H2401   1.084       .  S
C2397      C2398   1.414       .  A
C2398      N2399   1.428       .  S
N2399      O2403   1.262       .  A
N2399      O2404   1.262       .  A
N2402      O2406   1.262       .  A
N2402      O2405   1.262       .  A
C2407      C2408   1.405       .  A
C2407      C2412   1.403       .  A
C2407      H2414   1.083       .  S
C2408      C2409   1.413       .  A
C2409      C2410   1.400       .  A
C2409      N2416   1.429       .  S
C2410      C2411   1.405       .  A
C2410      H2415   1.083       .  S
C2411      C2412   1.416       .  A
C2412      N2413   1.429       .  S
N2413      O2417   1.262       .  A
N2413      O2418   1.262       .  A
N2416      O2420   1.262       .  A
N2416      O2419   1.262       .  A
C2421      C2422   1.405       .  A
C2421      C2426   1.398       .  A
C2421      H2428   1.082       .  S
C2422      C2423   1.414       .  A
C2423      N2430   1.429       .  S
C2424      C2425   1.404       .  A
C2424      H2429   1.082       .  S
C2426      N2427   1.429       .  S
N2427      O2431   1.262       .  A
N2430      O2433   1.262       .  A
C2435      C2436   1.405       .  A
C2435      C2440   1.399       .  A
C2435      H2442   1.081       .  S
C2436      C2437   1.413       .  A
C2437      C2438   1.400       .  A
C2437      N2444   1.429       .  S
C2438      C2439   1.406       .  A
C2438      H2443   1.081       .  S
C2439      C2440   1.412       .  A
C2440      N2441   1.429       .  S
N2441      O2445   1.262       .  A
N2441      O2446   1.262       .  A
N2444      O2448   1.262       .  A
N2444      O2447   1.262       .  A
C2449      C2450   1.405       .  A
C2449      C2454   1.402       .  A
C2449      H2456   1.083       .  S
C2450      C2451   1.414       .  A
C2451      C2452   1.399       .  A
C2451      N2458   1.429       .  S
C2452      C2453   1.405       .  A
C2452      H2457   1.083       .  S
C2453      C2454   1.414       .  A
C2454      N2455   1.429       .  S
N2455      O2459   1.262       .  A
N2455      O2460   1.262       .  A
N2458      O2462   1.262       .  A
N2458      O2461   1.262       .  A
C2463      C2464   1.406       .  A
C2463      C2468   1.402       .  A
C2463      H2470   1.083       .  S
C2464      C2465   1.413       .  A
C2465      C2466   1.400       .  A
C2465      N2472   1.429       .  S
C2466      C2467   1.406       .  A
C2466      H2471   1.083       .  S
C2467      C2468   1.413       .  A
C2468      N2469   1.429       .  S
N2469      O2473   1.262       .  A
N2469      O2474   1.262       .  A
N2472      O2476   1.262       .  A
N2472      O2475   1.262       .  A
C2477      C2478   1.407       .  A
C2477      C2482   1.404       .  A
C2477      H2484   1.083       .  S
C2478      C2479   1.412       .  A
C2479      C2480   1.393       .  A
C2479      N2486   1.429       .  S
C2480      C2481   1.403       .  A
C2480      H2485   1.084       .  S
C2481      C2482   1.410       .  A
C2482      N2483   1.428       .  S
N2483      O2487   1.262       .  A
N2483      O2488   1.262       .  A
N2486      O2490   1.262       .  A
N2486      O2489   1.262       .  A
C2491      C2492   1.405       .  A
C2491      C2496   1.401       .  A
C2491      H2498   1.084       .  S
C2492      C2493   1.412       .  A
C2493      C2494   1.403       .  A
C2493      N2500   1.429       .  S
C2494      C2495   1.408       .  A
C2494      H2499   1.084       .  S
C2495      C2496   1.414       .  A
C2496      N2497   1.429       .  S
N2497      O2501   1.262       .  A
N2497      O2502   1.262       .  A
N2500      O2504   1.262       .  A
C2505      C2506   1.405       .  A
C2505      C2510   1.399       .  A
C2505      H2512   1.083       .  S
C2506      C2507   1.414       .  A
C2507      C2508   1.403       .  A
C2507      N2514   1.429       .  S
C2508      C2509   1.406       .  A
C2508      H2513   1.083       .  S
C2509      C2510   1.414       .  A
C2510      N2511   1.429       .  S
N2511      O2515   1.262       .  A
N2511      O2516   1.262       .  A
N2514      O2518   1.262       .  A
N2514      O2517   1.262       .  A
C2519      C2520   1.405       .  A
C2519      C2524   1.399       .  A
C2519      H2526   1.083       .  S
C2520      C2521   1.413       .  A
C2521      C2522   1.399       .  A
C2521      N2528   1.429       .  S
C2522      C2523   1.405       .  A
C2522      H2527   1.083       .  S
C2523      C2524   1.413       .  A
C2524      N2525   1.429       .  S
N2525      O2529   1.262       .  A
N2525      O2530   1.262       .  A
N2528      O2532   1.262       .  A
N2528      O2531   1.262       .  A
C2533      C2534   1.407       .  A
C2533      C2538   1.405       .  A
C2533      H2540   1.081       .  S
C2534      C2535   1.414       .  A
C2535      C2536   1.400       .  A
C2535      N2542   1.429       .  S
C2536      C2537   1.405       .  A
C2536      H2541   1.082       .  S
C2537      C2538   1.415       .  A
C2538      N2539   1.429       .  S
N2539      O2543   1.262       .  A
N2539      O2544   1.262       .  A
N2542      O2546   1.262       .  A
N2542      O2545   1.262       .  A
C2547      C2548   1.406       .  A
C2547      C2552   1.402       .  A
C2547      H2554   1.082       .  S
C2548      C2549   1.413       .  A
C2549      C2550   1.399       .  A
C2549      N2556   1.428       .  S
C2550      C2551   1.404       .  A
C2550      H2555   1.082       .  S
C2551      C2552   1.415       .  A
C2552      N2553   1.429       .  S
N2553      O2557   1.262       .  A
N2553      O2558   1.262       .  A
N2556      O2560   1.262       .  A
N2556      O2559   1.262       .  A
C2561      C2562   1.406       .  A
C2561      C2566   1.399   1_655  A
C2561      H2568   1.082       .  S
C2562      C2563   1.414       .  A
C2563      C2564   1.402   1_655  A
C2563      N2570   1.429       .  S
C2564      C2565   1.406       .  A
C2564      H2569   1.083       .  S
C2565      C2566   1.410       .  A
C2566      N2567   1.429       .  S
N2567      O2571   1.262       .  A
N2567      O2572   1.262       .  A
N2570      O2574   1.262       .  A
N2570      O2573   1.262       .  A
C2575      C2576   1.405       .  A
C2575      C2580   1.400       .  A
C2575      H2582   1.085       .  S
C2576      C2577   1.414       .  A
C2577      C2578   1.399       .  A
C2577      N2584   1.430       .  S
C2578      C2579   1.405       .  A
C2578      H2583   1.085       .  S
C2579      C2580   1.413       .  A
C2580      N2581   1.428       .  S
N2581      O2585   1.262       .  A
N2581      O2586   1.262       .  A
N2584      O2588   1.262       .  A
N2584      O2587   1.262       .  A
C2589      C2590   1.404   1_554  A
C2589      C2594   1.398       .  A
C2589      H2596   1.085       .  S
C2590      C2591   1.412       .  A
C2591      C2592   1.398       .  A
C2591      N2598   1.428       .  S
C2592      C2593   1.403       .  A
C2592      H2597   1.085       .  S
C2593      C2594   1.414   1_556  A
C2594      N2595   1.430       .  S
N2595      O2599   1.262   1_554  A
N2598      O2601   1.262       .  A
C2603      C2604   1.405       .  A
C2603      C2608   1.401       .  A
C2603      H2610   1.083       .  S
C2604      C2605   1.414       .  A
C2605      C2606   1.402       .  A
C2605      N2612   1.429       .  S
C2606      C2607   1.406       .  A
C2606      H2611   1.083       .  S
C2607      C2608   1.414       .  A
C2608      N2609   1.429       .  S
N2609      O2613   1.262       .  A
N2609      O2614   1.262       .  A
N2612      O2616   1.262       .  A
N2612      O2615   1.262       .  A
C2617      C2618   1.406       .  A
C2617      C2622   1.406       .  A
C2617      H2624   1.082       .  S
C2618      C2619   1.412       .  A
C2619      C2620   1.396       .  A
C2619      N2626   1.429       .  S
C2620      C2621   1.404       .  A
C2620      H2625   1.082       .  S
C2621      C2622   1.415       .  A
C2622      N2623   1.429       .  S
N2623      O2627   1.262       .  A
N2623      O2628   1.262       .  A
N2626      O2630   1.262       .  A
N2626      O2629   1.262       .  A
C2631      C2632   1.406       .  A
C2631      C2636   1.398       .  A
C2631      H2638   1.084       .  S
C2632      C2633   1.414       .  A
C2633      C2634   1.403       .  A
C2633      N2640   1.428   1_556  S
C2634      C2635   1.406       .  A
C2634      H2639   1.085       .  S
C2635      C2636   1.410       .  A
C2636      N2637   1.429       .  S
N2637      O2641   1.262       .  A
N2637      O2642   1.262       .  A
N2640      O2644   1.262       .  A
N2640      O2643   1.262       .  A
C2645      C2646   1.405       .  A
C2645      C2650   1.402       .  A
C2645      H2652   1.081       .  S
C2646      C2647   1.412       .  A
C2647      C2648   1.399       .  A
C2647      N2654   1.429       .  S
C2648      C2649   1.406       .  A
C2648      H2653   1.081       .  S
C2649      C2650   1.414       .  A
C2650      N2651   1.428       .  S
N2651      O2655   1.262       .  A
N2651      O2656   1.262       .  A
N2654      O2658   1.262       .  A
N2654      O2657   1.262       .  A
C2659      C2660   1.406       .  A
C2659      C2664   1.404   1_655  A
C2659      H2666   1.081   1_655  S
C2660      C2661   1.412       .  A
C2661      N2668   1.428       .  S
C2662      C2663   1.404   1_655  A
C2662      H2667   1.082       .  S
C2664      N2665   1.429       .  S
N2665      O2669   1.262       .  A
N2668      O2671   1.262       .  A
C2673      C2674   1.406       .  A
C2673      C2678   1.401   1_655  A
C2673      H2680   1.080       .  S
C2674      C2675   1.414       .  A
C2675      C2676   1.403       .  A
C2675      N2682   1.429       .  S
C2676      C2677   1.407   1_655  A
C2676      H2681   1.080       .  S
C2677      C2678   1.413       .  A
C2678      N2679   1.429       .  S
N2679      O2683   1.262       .  A
N2679      O2684   1.262       .  A
N2682      O2686   1.262       .  A
N2682      O2685   1.262       .  A
C2687      C2688   1.405       .  A
C2687      C2692   1.399       .  A
C2687      H2694   1.084       .  S
C2688      C2689   1.415       .  A
C2689      C2690   1.399       .  A
C2689      N2696   1.429       .  S
C2690      C2691   1.404       .  A
C2690      H2695   1.084       .  S
C2691      C2692   1.411       .  A
C2692      N2693   1.428       .  S
N2693      O2697   1.262       .  A
N2696      O2700   1.262       .  A
N2696      O2699   1.262       .  A
C2701      C2702   1.406       .  A
C2701      C2706   1.402       .  A
C2701      H2708   1.084       .  S
C2702      C2703   1.413       .  A
C2703      C2704   1.395       .  A
C2703      N2710   1.429       .  S
C2704      C2705   1.403       .  A
C2704      H2709   1.084       .  S
C2705      C2706   1.413       .  A
C2706      N2707   1.428       .  S
N2707      O2711   1.262       .  A
N2707      O2712   1.262       .  A
N2710      O2714   1.262       .  A
N2710      O2713   1.262       .  A
C2715      C2716   1.405       .  A
C2715      C2720   1.397       .  A
C2715      H2722   1.082       .  S
C2716      C2717   1.412       .  A
C2717      C2718   1.398       .  A
C2717      N2724   1.429       .  S
C2718      C2719   1.405       .  A
C2718      H2723   1.082       .  S
C2719      C2720   1.413       .  A
C2720      N2721   1.429       .  S
N2721      O2725   1.262       .  A
N2721      O2726   1.262       .  A
N2724      O2728   1.262       .  A
N2724      O2727   1.262       .  A
C2729      C2730   1.405       .  A
C2729      C2734   1.400       .  A
C2729      H2736   1.083       .  S
C2730      C2731   1.414       .  A
C2731      C2732   1.401       .  A
C2731      N2738   1.429       .  S
C2732      C2733   1.405       .  A
C2732      H2737   1.083       .  S
C2733      C2734   1.414       .  A
C2734      N2735   1.429       .  S
N2735      O2739   1.262       .  A
N2735      O2740   1.262       .  A
N2738      O2742   1.262       .  A
N2738      O2741   1.262       .  A
C2743      C2744   1.405       .  A
C2743      C2748   1.400       .  A
C2743      H2750   1.084       .  S
C2744      C2745   1.413       .  A
C2745      C2746   1.396       .  A
C2746      C2747   1.403       .  A
C2746      H2751   1.084       .  S
C2747      C2748   1.414       .  A
C2748      N2749   1.429       .  S
N2749      O2753   1.262       .  A
N2749      O2754   1.262       .  A
N2752      O2755   1.262       .  A
C2757      C2758   1.405       .  A
C2757      C2762   1.402       .  A
C2757      H2764   1.084       .  S
C2758      C2759   1.415       .  A
C2759      C2760   1.397       .  A
C2759      N2766   1.429       .  S
C2760      C2761   1.404       .  A
C2760      H2765   1.085       .  S
C2761      C2762   1.414       .  A
C2762      N2763   1.428       .  S
N2763      O2767   1.262       .  A
N2763      O2768   1.262       .  A
N2766      O2770   1.262       .  A
N2766      O2769   1.262       .  A
C2771      C2772   1.405       .  A
C2771      C2776   1.397       .  A
C2771      H2778   1.083       .  S
C2772      C2773   1.411       .  A
C2773      C2774   1.399       .  A
C2773      N2780   1.429       .  S
C2774      C2775   1.406       .  A
C2774      H2779   1.083       .  S
C2775      C2776   1.412       .  A
C2776      N2777   1.429       .  S
N2780      O2784   1.262       .  A
N2780      O2783   1.262       .  A
C2785      C2790   1.399       .  A
C2785      H2792   1.081       .  S
C2786      C2787   1.413       .  A
C2787      C2788   1.401       .  A
C2787      N2794   1.429       .  S
C2788      C2789   1.405       .  A
C2788      H2793   1.081       .  S
C2790      N2791   1.429       .  S
N2791      O2795   1.262       .  A
N2791      O2796   1.262       .  A
N2794      O2798   1.262       .  A
N2794      O2797   1.262       .  A
C2799      C2800   1.406       .  A
C2799      C2804   1.400       .  A
C2799      H2806   1.081       .  S
C2800      C2801   1.412       .  A
C2801      C2802   1.399       .  A
C2801      N2808   1.429       .  S
C2802      C2803   1.406       .  A
C2802      H2807   1.081       .  S
C2803      C2804   1.412       .  A
C2804      N2805   1.429       .  S
N2805      O2809   1.262       .  A
N2805      O2810   1.262       .  A
N2808      O2812   1.262       .  A
N2808      O2811   1.262       .  A
C2813      C2814   1.405   1_655  A
C2813      H2820   1.081       .  S
C2815      C2816   1.402       .  A
C2815      N2822   1.429       .  S
C2816      C2817   1.404   1_455  A
C2816      H2821   1.081       .  S
C2817      C2818   1.411       .  A
N2819      O2823   1.262       .  A
N2822      O2826   1.262       .  A
C2827      C2828   1.406       .  A
C2827      C2832   1.402       .  A
C2827      H2834   1.084       .  S
C2828      C2829   1.414       .  A
C2829      C2830   1.401   1_455  A
C2829      N2836   1.428       .  S
C2830      C2831   1.405       .  A
C2830      H2835   1.084       .  S
C2831      C2832   1.414   1_655  A
C2832      N2833   1.429   1_455  S
N2833      O2837   1.262       .  A
N2833      O2838   1.262   1_655  A
N2836      O2840   1.262       .  A
N2836      O2839   1.262       .  A
C2841      C2842   1.404       .  A
C2841      C2846   1.401       .  A
C2841      H2848   1.084       .  S
C2842      C2843   1.413       .  A
C2843      C2844   1.400       .  A
C2843      N2850   1.429       .  S
C2844      C2845   1.405       .  A
C2844      H2849   1.084       .  S
C2845      C2846   1.415       .  A
C2846      N2847   1.429       .  S
N2847      O2851   1.262       .  A
N2847      O2852   1.262       .  A
N2850      O2854   1.262       .  A
N2850      O2853   1.262   1_556  A
C2855      C2856   1.404       .  A
C2855      C2860   1.397       .  A
C2855      H2862   1.085       .  S
C2856      C2857   1.411       .  A
C2857      C2858   1.399       .  A
C2857      N2864   1.429       .  S
C2858      C2859   1.406       .  A
C2858      H2863   1.085       .  S
C2859      C2860   1.412       .  A
C2860      N2861   1.429       .  S
N2861      O2865   1.262       .  A
N2861      O2866   1.262       .  A
N2864      O2868   1.262       .  A
N2864      O2867   1.262       .  A
C2869      C2870   1.404       .  A
C2869      C2874   1.395       .  A
C2869      H2876   1.084       .  S
C2870      C2871   1.411       .  A
C2871      C2872   1.401       .  A
C2871      N2878   1.429       .  S
C2872      C2873   1.407       .  A
C2872      H2877   1.084       .  S
C2873      C2874   1.411       .  A
C2874      N2875   1.429       .  S
N2875      O2879   1.262       .  A
N2875      O2880   1.262       .  A
N2878      O2882   1.262       .  A
N2878      O2881   1.262       .  A
C2883      C2884   1.405       .  A
C2883      C2888   1.401       .  A
C2883      H2890   1.084       .  S
C2884      C2885   1.413       .  A
C2885      C2886   1.397       .  A
C2885      N2892   1.429       .  S
C2886      C2887   1.402       .  A
C2886      H2891   1.084       .  S
C2887      C2888   1.412       .  A
C2888      N2889   1.429       .  S
N2889      O2893   1.262       .  A
N2892      O2896   1.262       .  A
N2892      O2895   1.262       .  A
C2897      C2898   1.405       .  A
C2897      C2902   1.400       .  A
C2897      H2904   1.084       .  S
C2898      C2899   1.414       .  A
C2899      C2900   1.402       .  A
C2899      N2906   1.429       .  S
C2900      C2901   1.406       .  A
C2900      H2905   1.083       .  S
C2901      C2902   1.414       .  A
C2902      N2903   1.429       .  S
N2903      O2907   1.262       .  A
N2903      O2908   1.262       .  A
N2906      O2910   1.262       .  A
N2906      O2909   1.262       .  A
C2911      C2912   1.403       .  A
C2911      C2916   1.403       .  A
C2911      H2918   1.084       .  S
C2912      C2913   1.411       .  A
C2913      C2914   1.393       .  A
C2913      N2920   1.428       .  S
C2914      C2915   1.403       .  A
C2914      H2919   1.084       .  S
C2915      C2916   1.415       .  A
C2916      N2917   1.428       .  S
N2917      O2921   1.262       .  A
N2917      O2922   1.262       .  A
N2920      O2924   1.262       .  A
N2920      O2923   1.262       .  A
C2925      C2926   1.407       .  A
C2925      C2930   1.404       .  A
C2925      H2932   1.081       .  S
C2926      C2927   1.414       .  A
C2927      C2928   1.403       .  A
C2927      N2934   1.428       .  S
C2928      C2929   1.406       .  A
C2928      H2933   1.081       .  S
C2929      C2930   1.414       .  A
C2930      N2931   1.429       .  S
N2931      O2935   1.262       .  A
N2931      O2936   1.262       .  A
N2934      O2938   1.262       .  A
N2934      O2937   1.262       .  A
C2939      C2940   1.403       .  A
C2939      C2944   1.401   1_455  A
C2939      H2946   1.083       .  S
C2940      C2941   1.416       .  A
C2941      C2942   1.402   1_455  A
C2941      N2948   1.428       .  S
C2942      C2943   1.403       .  A
C2942      H2947   1.083       .  S
C2943      C2944   1.414       .  A
C2944      N2945   1.428       .  S
N2945      O2949   1.262       .  A
N2945      O2950   1.262       .  A
N2948      O2952   1.261       .  A
N2948      O2951   1.262       .  A
