geometry optimzed in LAMMPS
_audit_creation_date              2020-11-30 
_audit_creation_method            'lammps2cif' 
_symmetry_space_group_name_H-M    'P1' 
_symmetry_Int_Tables_number       1 
_symmetry_cell_setting            triclinic 
loop_ 
_symmetry_equiv_pos_as_xyz 
  x,y,z 
_cell_length_a                    75.9236874 
_cell_length_b                    75.61753529300921 
_cell_length_c                    75.45277786622151 
_cell_angle_alpha                 89.9761444920237 
_cell_angle_beta                  89.99920006797998 
_cell_angle_gamma                 89.84686476386653 
loop_ 
_atom_site_label 
_atom_site_type_symbol 
_atom_site_fract_x 
_atom_site_fract_y 
_atom_site_fract_z 
_atom_site_charge 
Zn1        Zn  0.02419677  0.99411318  0.00014692     1.49700
Zn2        Zn  0.99289763  0.99815797  0.02812036     1.49400
Zn3        Zn  0.99624204  0.02519081  0.99578878     1.49100
Zn4        Zn  0.98424587  0.98492031  0.98847781     1.49500
O5          O  0.99931178  0.00050533  0.00306126    -1.84200
O6          O  0.03507480  0.98525158  0.02312273    -0.74800
O7          O  0.98550680  0.02165351  0.03877429    -0.74600
O8          O  0.01866629  0.03559611  0.98561494    -0.74200
O9          O  0.01293445  0.98755707  0.04223544    -0.74800
O10         O  0.03835574  0.01435680  0.99023362    -0.74400
O11         O  0.98815319  0.04032291  0.01621882    -0.75000
O12         O  0.96953869  0.99948940  0.97099205    -0.74400
O13         O  0.97248460  0.98154006  0.03110969    -0.75200
O14         O  0.97757409  0.02707467  0.97701338    -0.74600
O15         O  0.96728686  0.97090373  0.00418617    -0.75000
O16         O  0.99936340  0.96769628  0.97419251    -0.74900
O17         O  0.02663481  0.97470709  0.98218942    -0.74700
C18         C  0.02870994  0.98302444  0.03860423     0.77100
C19         C  0.98409599  0.03716745  0.03229516     0.77600
C20         C  0.03435773  0.02968452  0.98445590     0.76500
C21         C  0.96828315  0.01611835  0.96828231     0.76900
C22         C  0.96394559  0.97138781  0.02077747     0.78000
C23         C  0.01600502  0.96550292  0.97299884     0.77100
C24         C  0.08477969  0.31084163  0.12353534     0.80200
N25         N  0.07219385  0.29830399  0.12131228    -0.78100
C26         C  0.05827840  0.30102675  0.11041230     0.82600
N27         N  0.05696108  0.31661036  0.10163626    -0.78100
C28         C  0.06937877  0.32940435  0.10354279     0.82700
N29         N  0.08334707  0.32647781  0.11458981    -0.79800
C30         C  0.92225024  0.16941800  0.10415853     0.80200
N31         N  0.90831072  0.17137886  0.11540702    -0.78100
C32         C  0.90642655  0.18664295  0.12491552     0.82600
N33         N  0.91867203  0.19963295  0.12318115    -0.78100
C34         C  0.93260964  0.19772762  0.11212098     0.82700
N35         N  0.93421559  0.18262663  0.10263104    -0.79800
C36         C  0.81480008  0.12425485  0.40940535     0.80200
N37         N  0.80154053  0.12210133  0.42128601    -0.78100
C38         C  0.80461446  0.11526214  0.43759063     0.82600
N39         N  0.82125448  0.11042530  0.44197959    -0.78100
C40         C  0.83476136  0.11223551  0.43028854     0.82700
N41         N  0.83153217  0.11929289  0.41391929    -0.79800
C42         C  0.68587527  0.12666400  0.58844271     0.80200
N43         N  0.69858124  0.12561914  0.57579098    -0.78100
C44         C  0.69496666  0.11920527  0.55943019     0.82600
N45         N  0.67841282  0.11365583  0.55580561    -0.78100
C46         C  0.66545276  0.11444219  0.56820140     0.82700
N47         N  0.66921329  0.12104483  0.58462325    -0.79800
Zn48       Zn  0.77465336  0.25306919  0.26052608     1.49700
Zn49       Zn  0.74176569  0.27908641  0.25376185     1.49400
Zn50       Zn  0.74785208  0.24585117  0.22855403     1.49100
Zn51       Zn  0.73559752  0.23963738  0.26904673     1.49500
O52         O  0.74991253  0.25440307  0.25303584    -1.84200
O53         O  0.78399552  0.27716741  0.26750659    -0.74800
O54         O  0.73254172  0.28750806  0.22980331    -0.74600
O55         O  0.77138895  0.23787643  0.21871069    -0.74200
O56         O  0.76155817  0.29518974  0.26168994    -0.74800
O57         O  0.78985827  0.24332154  0.24083727    -0.74400
O58         O  0.73739649  0.26439980  0.21236693    -0.75000
O59         O  0.72194427  0.22135463  0.25492532    -0.74400
O60         O  0.72187364  0.28178607  0.27137885    -0.75200
O61         O  0.73140405  0.22517448  0.22733947    -0.74600
O62         O  0.71801299  0.25491468  0.28267347    -0.75000
O63         O  0.75105188  0.22604605  0.28661878    -0.74900
O64         O  0.77785938  0.23634402  0.28118459    -0.74700
C65         C  0.77732277  0.29265293  0.26700373     0.77100
C66         C  0.73163261  0.28007162  0.21465969     0.77600
C67         C  0.78687650  0.23763354  0.22522642     0.76500
C68         C  0.72189265  0.21704739  0.23857625     0.76900
C69         C  0.71395108  0.27130528  0.28192783     0.78000
C70         C  0.76755944  0.22624860  0.28983759     0.77100
C71         C  0.81653772  0.63542068  0.58144520     0.80200
N72         N  0.80465263  0.63555500  0.56801448    -0.78100
C73         C  0.80839729  0.62828508  0.55206447     0.82600
N74         N  0.82431919  0.62050253  0.54961246    -0.78100
C75         C  0.83653578  0.62024132  0.56280969     0.82700
N76         N  0.83267006  0.62785696  0.57877632    -0.79800
C77         C  0.67423988  0.63923174  0.41693255     0.80200
N78         N  0.65809515  0.63213080  0.42048031    -0.78100
C79         C  0.65500058  0.62417890  0.43643605     0.82600
N80         N  0.66811221  0.62357080  0.44869218    -0.78100
C81         C  0.68416045  0.63061244  0.44534435     0.82700
N82         N  0.68710027  0.63834728  0.42942812    -0.79800
Zn83       Zn  0.99356908  0.50170381  0.52702256     1.49700
Zn84       Zn  0.02568626  0.50608940  0.49970427     1.49400
Zn85       Zn  0.99841540  0.47481959  0.49455222     1.49100
Zn86       Zn  0.98576640  0.51519396  0.48746598     1.49500
O87         O  0.00080276  0.49951067  0.50214275    -1.84200
O88         O  0.01338925  0.51191809  0.54185846    -0.74800
O89         O  0.04044953  0.48627516  0.48916820    -0.74600
O90         O  0.98852665  0.45965503  0.51433087    -0.74200
O91         O  0.03591672  0.51420613  0.52316604    -0.74800
O92         O  0.98530792  0.47818877  0.53694621    -0.74400
O93         O  0.02145116  0.46438434  0.48535840    -0.75000
O94         O  0.97127483  0.50065698  0.46992079    -0.74400
O95         O  0.02805683  0.52635234  0.48265199    -0.75200
O96         O  0.98127842  0.47334387  0.47437278    -0.74600
O97         O  0.00091564  0.53247076  0.47347100    -0.75000
O98         O  0.96858508  0.52945814  0.50260933    -0.74900
O99         O  0.97290439  0.51835326  0.52952290    -0.74700
C100        C  0.02927120  0.51631982  0.53855102     0.77100
C101        C  0.03692792  0.47070539  0.48376177     0.77600
C102        C  0.98366758  0.46281265  0.53020667     0.76500
C103        C  0.97141182  0.48421007  0.46611428     0.76900
C104        C  0.01747737  0.53532333  0.47310191     0.78000
C105        C  0.96466319  0.52864340  0.51902533     0.77100
C106        C  0.43291802  0.82978405  0.11771237     0.80200
N107        N  0.44494837  0.81645807  0.11672683    -0.78100
C108        C  0.44074398  0.79975382  0.12167300     0.82600
N109        N  0.42428321  0.79644457  0.12773123    -0.78100
C110        C  0.41205584  0.80952202  0.12898436     0.82700
N111        N  0.41639252  0.82629950  0.12393992    -0.79800
C112        C  0.56987919  0.65863698  0.11660790     0.80200
N113        N  0.58630987  0.66251695  0.12289514    -0.78100
C114        C  0.59005336  0.67930339  0.12835365     0.82600
N115        N  0.57741027  0.69195899  0.12731322    -0.78100
C116        C  0.56108423  0.68828928  0.12115313     0.82700
N117        N  0.55737646  0.67155348  0.11588287    -0.79800
C118        C  0.12246362  0.06671992  0.33656135     0.80200
N119        N  0.12219957  0.05435879  0.32351553    -0.78100
C120        C  0.12988219  0.05741219  0.30764065     0.82600
N121        N  0.13793053  0.07309577  0.30475332    -0.78100
C122        C  0.13822087  0.08583683  0.31745902     0.82700
N123        N  0.13042866  0.08260073  0.33345841    -0.79800
C124        C  0.12867718  0.91137215  0.18558010     0.80200
N125        N  0.12265275  0.91489144  0.16889866    -0.78100
C126        C  0.11565057  0.93106000  0.16502994     0.82600
N127        N  0.11447822  0.94352007  0.17792649    -0.78100
C128        C  0.12026590  0.94010913  0.19456123     0.82700
N129        N  0.12746695  0.92410732  0.19823910    -0.79800
Zn130      Zn  0.26611656  0.73486914  0.23938392     1.49700
Zn131      Zn  0.25097757  0.74314234  0.27878149     1.49400
Zn132      Zn  0.25739004  0.77456460  0.25092257     1.49100
Zn133      Zn  0.22595711  0.74728203  0.24445362     1.49500
O134        O  0.25011968  0.74986398  0.25344733    -1.84200
O135        O  0.27961074  0.71824721  0.25559531    -0.74800
O136        O  0.25947339  0.76379028  0.29403449    -0.74600
O137        O  0.27765701  0.77708358  0.23383838    -0.74200
O138        O  0.26874991  0.72335323  0.28247990    -0.74800
O139        O  0.28393290  0.74963767  0.22556073    -0.74400
O140        O  0.26529020  0.78473820  0.27427108    -0.75000
O141        O  0.21570948  0.77082048  0.23637637    -0.74400
O142        O  0.22691474  0.73446054  0.28748998    -0.75200
O143        O  0.23745850  0.78963650  0.24171489    -0.74600
O144        O  0.21013698  0.73737800  0.26353684    -0.75000
O145        O  0.22497382  0.73010447  0.22390578    -0.74900
O146        O  0.25242728  0.72020910  0.22146220    -0.74700
C147        C  0.27924791  0.71505327  0.27220613     0.77100
C148        C  0.26523367  0.77918295  0.29020866     0.77600
C149        C  0.28683766  0.76623501  0.22479365     0.76500
C150        C  0.22187593  0.78649068  0.23631728     0.76900
C151        C  0.21205585  0.73286240  0.27970864     0.78000
C152        C  0.23633702  0.72006556  0.21655932     0.77100
Zn153      Zn  0.26370363  0.26828260  0.26029953     1.49700
Zn154      Zn  0.22466049  0.25310922  0.25219831     1.49400
Zn155      Zn  0.25187489  0.25959374  0.22055144     1.49100
Zn156      Zn  0.25847413  0.22797324  0.24754321     1.49500
O157        O  0.24967062  0.25228645  0.24527088    -1.84200
O158        O  0.24771047  0.28166157  0.27730657    -0.74800
O159        O  0.20929840  0.26225103  0.23200542    -0.74600
O160        O  0.26830860  0.28014093  0.21797771    -0.74200
O161        O  0.22122277  0.27023860  0.27235511    -0.74800
O162        O  0.27704817  0.28633842  0.24532518    -0.74400
O163        O  0.22852160  0.26720449  0.21040693    -0.75000
O164        O  0.26739010  0.21806421  0.22419228    -0.74400
O165        O  0.21602146  0.22901150  0.26063312    -0.75200
O166        O  0.26205512  0.24013671  0.20556013    -0.74600
O167        O  0.23958568  0.21193001  0.25700363    -0.75000
O168        O  0.27839875  0.22679999  0.26503643    -0.74900
O169        O  0.28167500  0.25430605  0.27477833    -0.74700
C170        C  0.23126331  0.28082011  0.28071600     0.77100
C171        C  0.21283895  0.26767148  0.21638722     0.77600
C172        C  0.27740453  0.28935627  0.22868092     0.76500
C173        C  0.26792244  0.22464660  0.20865381     0.76900
C174        C  0.22363931  0.21399391  0.26185561     0.78000
C175        C  0.28606804  0.23799390  0.27497492     0.77100
C176        C  0.56672960  0.83810039  0.61889596     0.80200
N177        N  0.58256497  0.83508962  0.62695446    -0.78100
C178        C  0.58494594  0.82033445  0.63713458     0.82600
N179        N  0.57141993  0.80878424  0.63911348    -0.78100
C180        C  0.55564979  0.81168546  0.63127229     0.82700
N181        N  0.55344078  0.82633638  0.62121565    -0.79800
C182        C  0.43491126  0.66392907  0.62498182     0.80200
N183        N  0.41860325  0.66826762  0.63131987    -0.78100
C184        C  0.41603616  0.68415818  0.63954012     0.82600
N185        N  0.42968180  0.69563012  0.64090328    -0.78100
C186        C  0.44580857  0.69159917  0.63439696     0.82700
N187        N  0.44836644  0.67564299  0.62661429    -0.79800
Zn188      Zn  0.49188449  0.99772882  0.47450527     1.49700
Zn189      Zn  0.49878313  0.02664092  0.50512469     1.49400
Zn190      Zn  0.48386749  0.98832476  0.51527169     1.49100
Zn191      Zn  0.52400202  0.99280903  0.50138878     1.49500
O192        O  0.49962725  0.00135778  0.49911024    -1.84200
O193        O  0.48401192  0.02086413  0.46353089    -0.74800
O194        O  0.48323155  0.03099667  0.52645057    -0.74600
O195        O  0.46467583  0.97558798  0.50160272    -0.74200
O196        O  0.48846497  0.04076277  0.48472407    -0.74800
O197        O  0.47078663  0.98160307  0.47348159    -0.74400
O198        O  0.47194317  0.00475549  0.53306708    -0.75000
O199        O  0.52525033  0.97289897  0.51921283    -0.74400
O200        O  0.52299917  0.03608684  0.51152671    -0.75200
O201        O  0.49777574  0.96983298  0.52890992    -0.74600
O202        O  0.54028481  0.01242329  0.50956502    -0.75000
O203        O  0.53341730  0.98318079  0.47809690    -0.74900
O204        O  0.51108415  0.98651019  0.45940443    -0.74700
C205        C  0.48305852  0.03670891  0.46923537     0.77100
C206        C  0.47330535  0.02131220  0.53597836     0.77600
C207        C  0.46127164  0.97404541  0.48512288     0.76500
C208        C  0.51394696  0.96518056  0.52900541     0.76900
C209        C  0.53810063  0.02880397  0.51298861     0.78000
C210        C  0.52677485  0.98139262  0.46268296     0.77100
C211        C  0.32061460  0.35216361  0.57856283     0.80200
N212        N  0.33645753  0.36057476  0.57691012    -0.78100
C213        C  0.34082874  0.36839971  0.56118136     0.82600
N214        N  0.32930042  0.36789904  0.54742906    -0.78100
C215        C  0.31350171  0.35984621  0.54902798     0.82700
N216        N  0.30933943  0.35201369  0.56457771    -0.79800
C217        C  0.18534524  0.37135969  0.40896869     0.80200
N218        N  0.19707060  0.36883557  0.42230258    -0.78100
C219        C  0.19420873  0.37555841  0.43865493     0.82600
N220        N  0.17947357  0.38527549  0.44156293    -0.78100
C221        C  0.16747842  0.38805616  0.42844827     0.82700
N222        N  0.17034619  0.38091504  0.41204692    -0.79800
C223        C  0.58517749  0.31191733  0.37635192     0.80200
N224        N  0.57274749  0.29922347  0.37842300    -0.78100
C225        C  0.55763244  0.30238530  0.38733725     0.82600
N226        N  0.55494580  0.31855952  0.39453538    -0.78100
C227        C  0.56712469  0.33157753  0.39271661     0.82700
N228        N  0.58227806  0.32833352  0.38341356    -0.79800
C229        C  0.42651175  0.16600240  0.38706780     0.80200
N230        N  0.43826403  0.17941720  0.38850552    -0.78100
C231        C  0.43663638  0.19427657  0.37864027     0.82600
N232        N  0.42290489  0.19574585  0.36729066    -0.78100
C233        C  0.41086025  0.18258294  0.36561894     0.82700
N234        N  0.41272334  0.16756225  0.37554758    -0.79800
C235        C  0.62767283  0.59009226  0.80962758     0.80200
N236        N  0.62878666  0.57689921  0.79746619    -0.78100
C237        C  0.62248801  0.56057190  0.80104165     0.82600
N238        N  0.61490019  0.55744898  0.81695153    -0.78100
C239        C  0.61370932  0.57031374  0.82946122     0.82700
N240        N  0.62021790  0.58676474  0.82578451    -0.79800
C241        C  0.62457037  0.43233326  0.66126327     0.80200
N242        N  0.62590661  0.44552313  0.67339332    -0.78100
C243        C  0.63716483  0.44433998  0.68725077     0.82600
N244        N  0.64730752  0.42969313  0.68897447    -0.78100
C245        C  0.64609493  0.41619228  0.67716920     0.82700
N246        N  0.63463969  0.41747370  0.66326805    -0.79800
Zn247      Zn  0.52168465  0.49272400  0.50267719     1.49700
Zn248      Zn  0.48247174  0.48339675  0.48946229     1.49400
Zn249      Zn  0.48924092  0.49818433  0.52915604     1.49100
Zn250      Zn  0.49394226  0.52407368  0.49615198     1.49500
O251        O  0.49676742  0.49952547  0.50427389    -1.84200
O252        O  0.52485234  0.47203546  0.48616236    -0.74800
O253        O  0.46463679  0.47024770  0.50491945    -0.74600
O254        O  0.50866962  0.48845239  0.54468458    -0.74200
O255        O  0.49803295  0.46509042  0.47675003    -0.74800
O256        O  0.53126327  0.48458412  0.52642880    -0.74400
O257        O  0.46892229  0.48137064  0.53182383    -0.75000
O258        O  0.48378091  0.53981888  0.51542933    -0.74400
O259        O  0.46894893  0.49739499  0.47070582    -0.75200
O260        O  0.48128729  0.52203510  0.53868551    -0.74600
O261        O  0.47719300  0.52515180  0.47554752    -0.75000
O262        O  0.51721082  0.53450574  0.48804622    -0.74900
O263        O  0.53648046  0.51299400  0.49334340    -0.74700
C264        C  0.51463946  0.46232200  0.47699535     0.77100
C265        C  0.46075997  0.47100677  0.52138733     0.77600
C266        C  0.52444717  0.48341455  0.54182206     0.76500
C267        C  0.47950049  0.53723158  0.53156394     0.76900
C268        C  0.46827555  0.51383745  0.46687213     0.78000
C269        C  0.53294629  0.52857112  0.48785666     0.77100
C270        C  0.31834916  0.13567283  0.08099745     0.80200
N271        N  0.30666609  0.13827519  0.06759659    -0.78100
C272        C  0.30913637  0.13082028  0.05147890     0.82600
N273        N  0.32350184  0.12051212  0.04880195    -0.78100
C274        C  0.33539128  0.11762306  0.06196220     0.82700
N275        N  0.33279371  0.12528094  0.07813239    -0.79800
C276        C  0.16183856  0.11608350  0.93234105     0.80200
N277        N  0.17350104  0.11889741  0.94569444    -0.78100
C278        C  0.18709054  0.13030797  0.94370501     0.82600
N279        N  0.18901159  0.13893109  0.92807562    -0.78100
C280        C  0.17756501  0.13624228  0.91451136     0.82700
N281        N  0.16393539  0.12473345  0.91664197    -0.79800
C282        C  0.11605897  0.43306496  0.83214002     0.80200
N283        N  0.11626294  0.44714570  0.82096176    -0.78100
C284        C  0.12760658  0.44769992  0.80711263     0.82600
N285        N  0.13867416  0.43387896  0.80440637    -0.78100
C286        C  0.13861660  0.41961454  0.81535039     0.82700
N287        N  0.12728295  0.41925686  0.82935361    -0.79800
C288        C  0.13242640  0.59229722  0.68229032     0.80200
N289        N  0.12142261  0.59070691  0.66805059    -0.78100
C290        C  0.11171363  0.57569678  0.66593700     0.82600
N291        N  0.11324578  0.56237727  0.67789011    -0.78100
C292        C  0.12425002  0.56372091  0.69191691     0.82700
N293        N  0.13368604  0.57873063  0.69407208    -0.79800
Zn294      Zn  0.26185547  0.23329520  0.76517585     1.49700
Zn295      Zn  0.25093194  0.24103689  0.72455609     1.49400
Zn296      Zn  0.22246641  0.24720254  0.75460041     1.49100
Zn297      Zn  0.25532504  0.27318253  0.75160675     1.49500
O298        O  0.24771269  0.24856446  0.74913619    -1.84200
O299        O  0.27594073  0.21496484  0.75088284    -0.74800
O300        O  0.22823429  0.23278771  0.71316800    -0.74600
O301        O  0.21892985  0.23101458  0.77530611    -0.74200
O302        O  0.26774377  0.22072489  0.72322622    -0.74800
O303        O  0.24541848  0.22043636  0.78234802    -0.74400
O304        O  0.20816326  0.23743509  0.73402455    -0.75000
O305        O  0.23547120  0.28887441  0.75995397    -0.74400
O306        O  0.26175409  0.26047537  0.70993121    -0.75200
O307        O  0.21244204  0.27097743  0.76186071    -0.74600
O308        O  0.26517070  0.28281767  0.72868036    -0.75000
O309        O  0.27453057  0.27527155  0.76975306    -0.74900
O310        O  0.27940883  0.24810899  0.77979185    -0.74700
C311        C  0.27675614  0.21177463  0.73426768     0.77100
C312        C  0.21235226  0.23206014  0.71856479     0.77600
C313        C  0.22879443  0.22128964  0.78489611     0.76500
C314        C  0.21931727  0.28622721  0.76364475     0.76900
C315        C  0.26702911  0.27609788  0.71331267     0.78000
C316        C  0.28280709  0.26466157  0.77988820     0.77100
Zn317      Zn  0.51388907  0.98052536  0.02014031     1.49700
Zn318      Zn  0.50430514  0.02129661  0.01239852     1.49400
Zn319      Zn  0.50701297  0.99381682  0.97994053     1.49100
Zn320      Zn  0.47503249  0.99148104  0.00732484     1.49500
O321        O  0.50015816  0.99673512  0.00496098    -1.84200
O322        O  0.52783470  0.99420319  0.03876920    -0.74800
O323        O  0.51522523  0.03543818  0.99254724    -0.74600
O324        O  0.52653689  0.97579057  0.97765983    -0.74200
O325        O  0.52132732  0.02222059  0.03282693    -0.74800
O326        O  0.53141737  0.96657351  0.00519902    -0.74400
O327        O  0.51650434  0.01683168  0.96979781    -0.75000
O328        O  0.46403439  0.98517958  0.98376879    -0.74400
O329        O  0.48175774  0.03338146  0.02064475    -0.75200
O330        O  0.48645503  0.98539179  0.96485181    -0.74600
O331        O  0.46185778  0.01217921  0.01750878    -0.75000
O332        O  0.47099404  0.97102482  0.02394204    -0.74900
O333        O  0.49772395  0.96321505  0.03300953    -0.74700
C334        C  0.52951294  0.01068750  0.04198857     0.77100
C335        C  0.51932368  0.03204350  0.97651919     0.77600
C336        C  0.53496495  0.96617636  0.98865829     0.76500
C337        C  0.47019427  0.98285153  0.96823365     0.76900
C338        C  0.46599412  0.02780315  0.02218066     0.78000
C339        C  0.48103339  0.96116974  0.03320958     0.77100
C340        C  0.86883459  0.41948863  0.31616309     0.80200
N341        N  0.87627104  0.42245587  0.33236483    -0.78100
C342        C  0.88456390  0.43807439  0.33575523     0.82600
N343        N  0.88519422  0.45064387  0.32292482    -0.78100
C344        C  0.87772799  0.44795567  0.30685473     0.82700
N345        N  0.86961349  0.43235009  0.30358684    -0.79800
C346        C  0.88943904  0.57228255  0.16061321     0.80200
N347        N  0.88220472  0.58835509  0.16461852    -0.78100
C348        C  0.87393536  0.59078607  0.18051873     0.82600
N349        N  0.87282168  0.57704154  0.19205597    -0.78100
C350        C  0.87971234  0.56101476  0.18809215     0.82700
N351        N  0.88803412  0.55878047  0.17240075    -0.79800
C352        C  0.63805591  0.08876070  0.18277901     0.80200
N353        N  0.63749725  0.07700678  0.19635264    -0.78100
C354        C  0.62781996  0.06206906  0.19526871     0.82600
N355        N  0.61859203  0.05882866  0.18026450    -0.78100
C356        C  0.61889204  0.07033439  0.16641197     0.82700
N357        N  0.62865317  0.08544289  0.16771554    -0.79800
C358        C  0.61931858  0.93385155  0.33714896     0.80200
N359        N  0.62015771  0.94686914  0.32472092    -0.78100
C360        C  0.62718833  0.94365173  0.30850763     0.82600
N361        N  0.63361890  0.92733586  0.30492022    -0.78100
C362        C  0.63308966  0.91415272  0.31709720     0.82700
N363        N  0.62574905  0.91741190  0.33328834    -0.79800
C364        C  0.08341300  0.68215115  0.36816141     0.80200
N365        N  0.07151763  0.69553112  0.36972416    -0.78100
C366        C  0.05556309  0.69283734  0.37726854     0.82600
N367        N  0.05142734  0.67648748  0.38320059    -0.78100
C368        C  0.06307708  0.66289923  0.38197587     0.82700
N369        N  0.07921575  0.66575551  0.37450518    -0.79800
C370        C  0.92904065  0.83471780  0.38546904     0.80200
N371        N  0.94046456  0.82086677  0.38593849    -0.78100
C372        C  0.93793672  0.80633626  0.37578800     0.82600
N373        N  0.92377276  0.80573532  0.36492235    -0.78100
C374        C  0.91207207  0.81933276  0.36423343     0.82700
N375        N  0.91468749  0.83390119  0.37457202    -0.79800
C376        C  0.81646891  0.86639582  0.08669620     0.80200
N377        N  0.80282831  0.86685505  0.07505881    -0.78100
C378        C  0.80410239  0.87582173  0.05959666     0.82600
N379        N  0.81934863  0.88419089  0.05570700    -0.78100
C380        C  0.83326005  0.88392348  0.06704036     0.82700
N381        N  0.83175811  0.87505521  0.08275545    -0.79800
C382        C  0.67969645  0.86158965  0.91396341     0.80200
N383        N  0.66489303  0.87150751  0.91643730    -0.78100
C384        C  0.66324015  0.88182960  0.93117062     0.82600
N385        N  0.67658648  0.88221168  0.94319594    -0.78100
C386        C  0.69143331  0.87248927  0.94077384     0.82700
N387        N  0.69281286  0.86214116  0.92617843    -0.79800
Zn388      Zn  0.74378294  0.72337143  0.24859881     1.49700
Zn389      Zn  0.73507974  0.76235118  0.23366091     1.49400
Zn390      Zn  0.74553627  0.75658251  0.27476336     1.49100
Zn391      Zn  0.77462622  0.75119953  0.24418026     1.49500
O392        O  0.74968472  0.74846436  0.25030378    -1.84200
O393        O  0.72461658  0.71951137  0.23061373    -0.74800
O394        O  0.72043448  0.78054523  0.24690062    -0.74600
O395        O  0.73585556  0.73682745  0.29024625    -0.74200
O396        O  0.71830251  0.74621167  0.22006504    -0.74800
O397        O  0.73516587  0.71378642  0.27200091    -0.74400
O398        O  0.72756756  0.77632638  0.27513788    -0.75000
O399        O  0.78761112  0.76358491  0.26388051    -0.74400
O400        O  0.75034439  0.77543124  0.21570725    -0.75200
O401        O  0.76802253  0.76644685  0.28559818    -0.74600
O402        O  0.77732524  0.76598900  0.22227995    -0.75000
O403        O  0.78661561  0.72784566  0.23869938    -0.74900
O404        O  0.76464609  0.70872362  0.24094498    -0.74700
C405        C  0.71574913  0.72952814  0.22035721     0.77100
C406        C  0.71882184  0.78450004  0.26325756     0.77600
C407        C  0.73248002  0.72059272  0.28720895     0.76500
C408        C  0.78349144  0.76877555  0.27941582     0.76900
C409        C  0.76686170  0.77497598  0.21264265     0.78000
C410        C  0.78070770  0.71213947  0.23752895     0.77100
C411        C  0.39533799  0.57334087  0.33204146     0.80200
N412        N  0.38704511  0.58912876  0.32908438    -0.78100
C413        C  0.38094542  0.59317555  0.31254847     0.82600
N414        N  0.38317527  0.58136056  0.29918060    -0.78100
C415        C  0.39126260  0.56562643  0.30197618     0.82700
N416        N  0.39727033  0.56173438  0.31842622    -0.79800
C417        C  0.37226512  0.41532980  0.18472189     0.80200
N418        N  0.37429991  0.42802859  0.19727993    -0.78100
C419        C  0.38236617  0.44351333  0.19352167     0.82600
N420        N  0.38853061  0.44625921  0.17692813    -0.78100
C421        C  0.38675954  0.43380815  0.16407943     0.82700
N422        N  0.37854971  0.41822995  0.16800549    -0.79800
Zn423      Zn  0.51451182  0.48225718  0.98032027     1.49700
Zn424      Zn  0.47610691  0.49127626  0.99523904     1.49400
Zn425      Zn  0.50931233  0.49555775  0.02076762     1.49100
Zn426      Zn  0.50432069  0.52263147  0.98877268     1.49500
O427        O  0.50109137  0.49791901  0.99622111    -1.84200
O428        O  0.49839104  0.46523535  0.96692143    -0.74800
O429        O  0.46657064  0.48403333  0.01931698    -0.74600
O430        O  0.52843689  0.47711723  0.02240435    -0.74200
O431        O  0.47206973  0.47084910  0.97842919    -0.74800
O432        O  0.53174483  0.46763568  0.99471041    -0.74400
O433        O  0.48972738  0.48762470  0.03686557    -0.75000
O434        O  0.51417534  0.53775492  0.00871801    -0.74400
O435        O  0.46177024  0.51175656  0.98604308    -0.75200
O436        O  0.51859965  0.51867661  0.03062818    -0.74600
O437        O  0.48117348  0.53306648  0.98060070    -0.75000
O438        O  0.52137890  0.52440077  0.96827179    -0.74900
O439        O  0.52855390  0.49654476  0.96233896    -0.74700
C440        C  0.48190727  0.46208441  0.96791929     0.77100
C441        C  0.47366760  0.48336843  0.03461062     0.77600
C442        C  0.53586398  0.46704927  0.01109949     0.76500
C443        C  0.51946404  0.53432024  0.02439849     0.76900
C444        C  0.46544164  0.52721854  0.98043204     0.78000
C445        C  0.52993305  0.51307012  0.95918445     0.77100
Zn446      Zn  0.02691324  0.00724014  0.50096873     1.49700
Zn447      Zn  0.99490829  0.00034490  0.47405483     1.49400
Zn448      Zn  0.99932838  0.97660829  0.50902999     1.49100
Zn449      Zn  0.98729120  0.01748539  0.51237106     1.49500
O450        O  0.00203742  0.00047871  0.49912255    -1.84200
O451        O  0.03714709  0.01343706  0.47700224    -0.74800
O452        O  0.98658729  0.97597145  0.46634475    -0.74600
O453        O  0.02220377  0.96710088  0.51935652    -0.74200
O454        O  0.01515969  0.00798621  0.45837762    -0.74800
O455        O  0.04155267  0.98797853  0.51258786    -0.74400
O456        O  0.99047609  0.95956730  0.49045290    -0.75000
O457        O  0.97237374  0.00456722  0.53070724    -0.74400
O458        O  0.97505947  0.01777738  0.46959796    -0.75200
O459        O  0.98121789  0.97662542  0.52847564    -0.74600
O460        O  0.97038268  0.03038815  0.49575489    -0.75000
O461        O  0.00258510  0.03585894  0.52498943    -0.74900
O462        O  0.02963225  0.02878959  0.51626463    -0.74700
C463        C  0.03086905  0.01313849  0.46134041     0.77100
C464        C  0.98566345  0.96113151  0.47434067     0.77600
C465        C  0.03787896  0.97310751  0.51963902     0.76500
C466        C  0.97147297  0.98840795  0.53553186     0.76900
C467        C  0.96686377  0.02890171  0.47927559     0.78000
C468        C  0.01917658  0.03864858  0.52502530     0.77100
C469        C  0.31065707  0.87339485  0.41732734     0.80200
N470        N  0.32645762  0.88196311  0.41866577    -0.78100
C471        C  0.32924217  0.89361204  0.43225824     0.82600
N472        N  0.31624247  0.89641777  0.44430212    -0.78100
C473        C  0.30059638  0.88803454  0.44309082     0.82700
N474        N  0.29794696  0.87659810  0.42959844    -0.79800
C475        C  0.18667239  0.87730636  0.59345815     0.80200
N476        N  0.19942281  0.88008517  0.58116566    -0.78100
C477        C  0.19752818  0.89251316  0.56840896     0.82600
N478        N  0.18261907  0.90235197  0.56797113    -0.78100
C479        C  0.16962747  0.89986987  0.58009646     0.82700
N480        N  0.17162068  0.88724617  0.59291470    -0.79800
C481        C  0.41381851  0.31415755  0.86440283     0.80200
N482        N  0.41660105  0.33094892  0.87056280    -0.78100
C483        C  0.43323289  0.33613806  0.87514950     0.82600
N484        N  0.44678740  0.32451226  0.87358399    -0.78100
C485        C  0.44418052  0.30784188  0.86765774     0.82700
N486        N  0.42768214  0.30279298  0.86311330    -0.79800
C487        C  0.58631910  0.18115296  0.87478300     0.80200
N488        N  0.57303671  0.19309192  0.87289064    -0.78100
C489        C  0.55735149  0.19084066  0.88110796     0.82600
N490        N  0.55500697  0.17645102  0.89151800    -0.78100
C491        C  0.56802024  0.16426921  0.89365422     0.82700
N492        N  0.58372707  0.16656812  0.88514407    -0.79800
C493        C  0.06377660  0.16741697  0.61517450     0.80200
N494        N  0.05088792  0.17984324  0.61414827    -0.78100
C495        C  0.05359153  0.19654663  0.61993062     0.82600
N496        N  0.06940871  0.20075236  0.62705668    -0.78100
C497        C  0.08253552  0.18854335  0.62844036     0.82700
N498        N  0.07971818  0.17176005  0.62233689    -0.79800
C499        C  0.92156233  0.33189862  0.60605801     0.80200
N500        N  0.93276539  0.31788802  0.60482929    -0.78100
C501        C  0.93053492  0.30331357  0.61500592     0.82600
N502        N  0.91686453  0.30279568  0.62646289    -0.78100
C503        C  0.90539280  0.31650290  0.62795998     0.82700
N504        N  0.90777119  0.33122551  0.61771379    -0.79800
C505        C  0.67800438  0.35391749  0.07783566     0.80200
N506        N  0.66331318  0.36432863  0.07672596    -0.78100
C507        C  0.66051915  0.37449469  0.06201001     0.82600
N508        N  0.67248575  0.37412400  0.04862935    -0.78100
C509        C  0.68711706  0.36394032  0.04964714     0.82700
N510        N  0.68975980  0.35390122  0.06426528    -0.79800
C511        C  0.82330604  0.35974863  0.91633951     0.80200
N512        N  0.80999299  0.35931815  0.92835553    -0.78100
C513        C  0.81045814  0.36957008  0.94303853     0.82600
N514        N  0.82452107  0.38015300  0.94574639    -0.78100
C515        C  0.83806639  0.38080960  0.93403387     0.82700
N516        N  0.83744257  0.37055096  0.91913122    -0.79800
Zn517      Zn  0.76290948  0.23066282  0.73824778     1.49700
Zn518      Zn  0.75641264  0.27085382  0.75029953     1.49400
Zn519      Zn  0.72374618  0.24478830  0.74600901     1.49100
Zn520      Zn  0.75040496  0.23970055  0.77849747     1.49500
O521        O  0.74845826  0.24639548  0.75329035    -1.84200
O522        O  0.78115308  0.24473856  0.72423800    -0.74800
O523        O  0.73708653  0.28633376  0.74046383    -0.74600
O524        O  0.72066487  0.22723106  0.72627464    -0.74200
O525        O  0.77662609  0.27235662  0.73311169    -0.74800
O526        O  0.74751661  0.21697429  0.72071799    -0.74400
O527        O  0.71430639  0.26828689  0.73730614    -0.75000
O528        O  0.72674046  0.23192515  0.78866619    -0.74400
O529        O  0.76476210  0.28126229  0.77342277    -0.75200
O530        O  0.70856963  0.23602711  0.76598845    -0.74600
O531        O  0.76043858  0.26000923  0.79325964    -0.75000
O532        O  0.76691421  0.21886296  0.78103056    -0.74900
O533        O  0.77603740  0.21292003  0.75364082    -0.74700
C534        C  0.78500277  0.26115988  0.72372541     0.77100
C535        C  0.72121860  0.28354923  0.73576802     0.77600
C536        C  0.73097596  0.21712973  0.71762100     0.76500
C537        C  0.71136527  0.23111338  0.78189221     0.76900
C538        C  0.76570166  0.27554649  0.78928208     0.78000
C539        C  0.77615545  0.20975193  0.77026001     0.77100
C540        C  0.08461031  0.81834016  0.86917628     0.80200
N541        N  0.07407941  0.80395171  0.87091362    -0.78100
C542        C  0.06027503  0.80404845  0.88225927     0.82600
N543        N  0.05691980  0.81883137  0.89178021    -0.78100
C544        C  0.06714157  0.83345293  0.89023997     0.82700
N545        N  0.08115192  0.83320949  0.87886965    -0.79800
C546        C  0.91527058  0.68384548  0.86648062     0.80200
N547        N  0.92762257  0.69633547  0.86981923    -0.78100
C548        C  0.94272659  0.69235239  0.87844528     0.82600
N549        N  0.94559760  0.67546756  0.88369975    -0.78100
C550        C  0.93333263  0.66274144  0.88075838     0.82700
N551        N  0.91805344  0.66693025  0.87215865    -0.79800
C552        C  0.86266350  0.08277572  0.82183611     0.80200
N553        N  0.87347091  0.07981474  0.83597632    -0.78100
C554        C  0.88522683  0.06612653  0.83556506     0.82600
N555        N  0.88618494  0.05578836  0.82086104    -0.78100
C556        C  0.87547222  0.05866328  0.80677416     0.82700
N557        N  0.86363539  0.07207857  0.80744030    -0.79800
C558        C  0.86229951  0.91813179  0.67910231     0.80200
N559        N  0.87098761  0.92109276  0.66355899    -0.78100
C560        C  0.87901658  0.93693846  0.66060618     0.82600
N561        N  0.87801149  0.94974327  0.67318288    -0.78100
C562        C  0.86924411  0.94704641  0.68857423     0.82700
N563        N  0.86150808  0.93116772  0.69147623    -0.79800
Zn564      Zn  0.74448475  0.77561136  0.74500743     1.49700
Zn565      Zn  0.73761256  0.73488389  0.73371640     1.49400
Zn566      Zn  0.77668079  0.74834510  0.74283044     1.49100
Zn567      Zn  0.74818307  0.74458231  0.77367251     1.49500
O568        O  0.75167920  0.75085350  0.74872899    -1.84200
O569        O  0.72478580  0.77698007  0.72723256    -0.74800
O570        O  0.75334381  0.72091582  0.71681347    -0.74600
O571        O  0.78740502  0.77174185  0.73554108    -0.74200
O572        O  0.72009547  0.74911338  0.71921562    -0.74800
O573        O  0.76479103  0.79045347  0.73579204    -0.74400
O574        O  0.78009634  0.73118528  0.72265938    -0.75000
O575        O  0.77073965  0.73605955  0.78515704    -0.74400
O576        O  0.72330438  0.71759981  0.74865340    -0.75200
O577        O  0.79036893  0.73849430  0.76350330    -0.74600
O578        O  0.73043549  0.72503158  0.77616701    -0.75000
O579        O  0.73844412  0.76515818  0.78745363    -0.74900
O580        O  0.73505529  0.78664189  0.76768180    -0.74700
C581        C  0.71637246  0.76554836  0.71821074     0.77100
C582        C  0.76990489  0.72110789  0.71386705     0.77600
C583        C  0.78103286  0.78714449  0.73295905     0.76500
C584        C  0.78637021  0.73413084  0.77930810     0.76900
C585        C  0.72169348  0.71556172  0.76536450     0.78000
C586        C  0.73345974  0.78075003  0.78343438     0.77100
Zn587      Zn  0.98715950  0.48504861  0.00975041     1.49700
Zn588      Zn  0.99910685  0.52507488  0.00245867     1.49400
Zn589      Zn  0.02715710  0.49350440  0.99904860     1.49100
Zn590      Zn  0.99612030  0.49798953  0.97028231     1.49500
O591        O  0.00240760  0.50036055  0.99540939    -1.84200
O592        O  0.97322889  0.49943739  0.02756983    -0.74800
O593        O  0.02214681  0.53615321  0.01006640    -0.74600
O594        O  0.02928171  0.47286545  0.01599586    -0.74200
O595        O  0.98219414  0.52697852  0.02294588    -0.74800
O596        O  0.00159561  0.46695818  0.02327930    -0.74400
O597        O  0.04134633  0.51391864  0.00910605    -0.75000
O598        O  0.01672379  0.48891488  0.95613998    -0.74400
O599        O  0.98844956  0.53948313  0.98266506    -0.75200
O600        O  0.03807917  0.48530281  0.97596246    -0.74600
O601        O  0.98704523  0.52100518  0.95987493    -0.75000
O602        O  0.97673251  0.48018900  0.96702040    -0.74900
O603        O  0.97001145  0.47152304  0.99428434    -0.74700
C604        C  0.97278459  0.51586862  0.03135763     0.77100
C605        C  0.03762041  0.53002525  0.01251966     0.77600
C606        C  0.01803246  0.46363822  0.02441945     0.76500
C607        C  0.03229661  0.48401876  0.96014910     0.76900
C608        C  0.98429250  0.53620349  0.96664630     0.78000
C609        C  0.96758200  0.47083149  0.97757804     0.77100
C610        C  0.38085812  0.09339861  0.68974881     0.80200
N611        N  0.38625360  0.08935195  0.67295824    -0.78100
C612        C  0.39520164  0.07393988  0.66988966     0.82600
N613        N  0.39819584  0.06258269  0.68354232    -0.78100
C614        C  0.39257096  0.06637381  0.70015506     0.82700
N615        N  0.38406906  0.08182946  0.70310992    -0.79800
C616        C  0.37479878  0.91465489  0.81455557     0.80200
N617        N  0.37651526  0.92789043  0.80253190    -0.78100
C618        C  0.38389427  0.94353542  0.80700673     0.82600
N619        N  0.38964017  0.94593720  0.82382647    -0.78100
C620        C  0.38815692  0.93289905  0.83612979     0.82700
N621        N  0.38072929  0.91714796  0.83145058    -0.79800
C622        C  0.18470139  0.62889464  0.08909538     0.80200
N623        N  0.16867927  0.62136419  0.08587086    -0.78100
C624        C  0.16579891  0.61251469  0.07036014     0.82600
N625        N  0.17901318  0.61119199  0.05828483    -0.78100
C626        C  0.19501117  0.61843345  0.06143240     0.82700
N627        N  0.19768166  0.62725887  0.07680882    -0.79800
C628        C  0.31563263  0.62660391  0.91327150     0.80200
N629        N  0.30269818  0.62566596  0.92567699    -0.78100
C630        C  0.30439001  0.61518323  0.94012622     0.82600
N631        N  0.31920896  0.60539556  0.94209955    -0.78100
C632        C  0.33232414  0.60607554  0.92988856     0.82700
N633        N  0.33057293  0.61677443  0.91543885    -0.79800
Zn634      Zn  0.26526606  0.76804807  0.73855685     1.49700
Zn635      Zn  0.25329880  0.76101526  0.77902971     1.49400
Zn636      Zn  0.22577482  0.75473850  0.74803557     1.49100
Zn637      Zn  0.25877010  0.72867518  0.75272710     1.49500
O638        O  0.25079718  0.75321106  0.75447370    -1.84200
O639        O  0.27948225  0.78583180  0.75305460    -0.74800
O640        O  0.23031972  0.76984393  0.78936789    -0.74600
O641        O  0.22256993  0.77265768  0.72856078    -0.74200
O642        O  0.27080747  0.78062129  0.78067767    -0.74800
O643        O  0.24950770  0.78171762  0.72148705    -0.74400
O644        O  0.21068152  0.76328021  0.76863293    -0.75000
O645        O  0.23977473  0.71344888  0.74226037    -0.74400
O646        O  0.26242743  0.74141559  0.79457812    -0.75200
O647        O  0.21665072  0.73118182  0.73886190    -0.74600
O648        O  0.26599122  0.71859832  0.77646159    -0.75000
O649        O  0.27978360  0.72661455  0.73667008    -0.74900
O650        O  0.28289127  0.75312011  0.72436508    -0.74700
C651        C  0.28021723  0.78911858  0.76964019     0.77100
C652        C  0.21445889  0.76952065  0.78387015     0.77600
C653        C  0.23283555  0.78222764  0.71928463     0.76500
C654        C  0.22394452  0.71604501  0.73727417     0.76900
C655        C  0.26698960  0.72543106  0.79185156     0.78000
C656        C  0.28756499  0.73696317  0.72592612     0.77100
C657        C  0.31290634  0.63803865  0.89750526    -0.03300
C658        C  0.32411862  0.63725439  0.88268533    -0.05900
C659        C  0.32058606  0.64756971  0.86761862    -0.20900
C660        C  0.30597228  0.65901411  0.86720737     0.24800
C661        C  0.29483521  0.65976964  0.88205914    -0.18500
C662        C  0.29830184  0.64950785  0.89698443    -0.08500
C663        C  0.30195183  0.66934366  0.85091726    -0.18800
C664        C  0.29301067  0.68475971  0.85146719    -0.23600
C665        C  0.28722201  0.69485770  0.83561584     0.26800
C666        C  0.28286546  0.71276890  0.83773401    -0.20300
C667        C  0.27631565  0.72263316  0.82354510    -0.10000
C668        C  0.27383126  0.71477561  0.80686003    -0.10500
C669        C  0.27816841  0.69680587  0.80469120    -0.03400
C670        C  0.28475871  0.68691402  0.81893445    -0.18600
H671        H  0.33540265  0.62846873  0.88260054     0.10500
H672        H  0.32925326  0.64659670  0.85625589     0.10600
H673        H  0.28308434  0.66789193  0.88206897     0.10300
H674        H  0.28928924  0.65043752  0.90806955     0.11400
H675        H  0.30667877  0.66423531  0.83834338     0.11500
H676        H  0.28994016  0.69056923  0.86426124     0.13400
H677        H  0.28447885  0.71916866  0.85047440     0.09900
H678        H  0.27317348  0.73644522  0.82568998     0.12000
H679        H  0.27632550  0.69033471  0.79202816     0.08600
H680        H  0.28746576  0.67301119  0.81691457     0.11300
C681        C  0.29020823  0.61440830  0.95353753    -0.03300
C682        C  0.27333647  0.62104035  0.94965892    -0.05900
C683        C  0.25994385  0.62033515  0.96231996    -0.20900
C684        C  0.26319094  0.61329176  0.97920395     0.24800
C685        C  0.28001957  0.60647767  0.98306313    -0.18500
C686        C  0.29337834  0.60701890  0.97033724    -0.08500
C687        C  0.24863403  0.61298785  0.99229494    -0.18800
C688        C  0.25132122  0.61353275  0.00991293    -0.23600
C689        C  0.23670630  0.61434836  0.02292459     0.26800
C690        C  0.23963770  0.62262302  0.03927648    -0.20300
C691        C  0.22611976  0.62395844  0.05176076    -0.10000
C692        C  0.20938903  0.61683531  0.04823186    -0.10500
C693        C  0.20657639  0.60817628  0.03198965    -0.03400
C694        C  0.22009238  0.60691371  0.01947267    -0.18600
H695        H  0.27042361  0.62667797  0.93678919     0.10500
H696        H  0.24704358  0.62551266  0.95898463     0.10600
H697        H  0.28285598  0.60048014  0.99576969     0.10300
H698        H  0.30621980  0.60173135  0.97370691     0.11400
H699        H  0.23528383  0.61361371  0.98717090     0.11500
H700        H  0.26464060  0.61474307  0.01499899     0.13400
H701        H  0.25236982  0.62831168  0.04230132     0.09900
H702        H  0.22880491  0.63062047  0.06416588     0.12000
H703        H  0.19392004  0.60237056  0.02890681     0.08600
H704        H  0.21753496  0.59992865  0.00723262     0.11300
C705        C  0.29217900  0.80303382  0.77648537    -0.03300
C706        C  0.29322253  0.80625827  0.79482021    -0.05900
C707        C  0.30417577  0.81948846  0.80147165    -0.20900
C708        C  0.31449449  0.82977842  0.79004831     0.24800
C709        C  0.31350435  0.82657863  0.77165531    -0.18500
C710        C  0.30250513  0.81330183  0.76497740    -0.08500
C711        C  0.32530461  0.84422365  0.79786269    -0.18800
C712        C  0.33896131  0.85189249  0.78950608    -0.23600
C713        C  0.34871717  0.86731458  0.79673877     0.26800
C714        C  0.35677569  0.87883090  0.78469715    -0.20300
C715        C  0.36543934  0.89394670  0.79061348    -0.10000
C716        C  0.36654269  0.89784069  0.80881364    -0.10500
C717        C  0.35908296  0.88597411  0.82100647    -0.03400
C718        C  0.35018159  0.87085469  0.81503240    -0.18600
H719        H  0.28547409  0.79861517  0.80410734     0.10500
H720        H  0.30455619  0.82171830  0.81565085     0.10600
H721        H  0.32078656  0.83452160  0.76228571     0.10300
H722        H  0.30193129  0.81123287  0.75078803     0.11400
H723        H  0.32161323  0.84880791  0.81097898     0.11500
H724        H  0.34269950  0.84740185  0.77638446     0.13400
H725        H  0.35601070  0.87634842  0.77057412     0.09900
H726        H  0.37119843  0.90267673  0.78083138     0.12000
H727        H  0.35978595  0.88857136  0.83510083     0.08600
H728        H  0.34458198  0.86198517  0.82475269     0.11300
C729        C  0.39483563  0.05348952  0.71476330    -0.03300
C730        C  0.38941131  0.05779308  0.73206370    -0.05900
C731        C  0.39014753  0.04519612  0.74557006    -0.20900
C732        C  0.39612738  0.02800445  0.74206326     0.24800
C733        C  0.40232352  0.02389205  0.72497499    -0.18500
C734        C  0.40164866  0.03651076  0.71146029    -0.08500
C735        C  0.39545146  0.01467675  0.75645086    -0.18800
C736        C  0.39327666  0.99731112  0.75327287    -0.23600
C737        C  0.39097855  0.98393185  0.76745471     0.26800
C738        C  0.38259079  0.96799011  0.76321038    -0.20300
C739        C  0.38012065  0.95497638  0.77607970    -0.10000
C740        C  0.38612809  0.95756749  0.79350798    -0.10500
C741        C  0.39465449  0.97349290  0.79774990    -0.03400
C742        C  0.39712801  0.98652050  0.78485380    -0.18600
H743        H  0.38426128  0.07080053  0.73513541     0.10500
H744        H  0.38552153  0.04874340  0.75868616     0.10600
H745        H  0.40764696  0.01095438  0.72196745     0.10300
H746        H  0.40614269  0.03282598  0.69834586     0.11400
H747        H  0.39515297  0.01955473  0.76997086     0.11500
H748        H  0.39183763  0.99278240  0.73969656     0.13400
H749        H  0.37782418  0.96562719  0.74988637     0.09900
H750        H  0.37355478  0.94285230  0.77231136     0.12000
H751        H  0.39960338  0.97584695  0.81099800     0.08600
H752        H  0.40413534  0.99839450  0.78853173     0.11300
C753        C  0.05149724  0.54186893  0.01959324    -0.03300
C754        C  0.04990479  0.56032180  0.01791864    -0.05900
C755        C  0.06312294  0.57150292  0.02430762    -0.20900
C756        C  0.07795126  0.56454066  0.03297354     0.24800
C757        C  0.07946729  0.54609827  0.03489547    -0.18500
C758        C  0.06643506  0.53487655  0.02814252    -0.08500
C759        C  0.09226272  0.57667530  0.03858456    -0.18800
C760        C  0.10230630  0.57390859  0.05305996    -0.23600
C761        C  0.11765585  0.58525987  0.05754574     0.26800
C762        C  0.12258456  0.58766465  0.07534598    -0.20300
C763        C  0.13780539  0.59724159  0.07970728    -0.10000
C764        C  0.14862093  0.60413884  0.06628435    -0.10500
C765        C  0.14354961  0.60185397  0.04850469    -0.03400
C766        C  0.12823155  0.59262908  0.04418252    -0.18600
H767        H  0.03859199  0.56611069  0.01134775     0.10500
H768        H  0.06176340  0.58565297  0.02249276     0.10600
H769        H  0.09095679  0.54031315  0.04113825     0.10300
H770        H  0.06801906  0.52071931  0.02966474     0.11400
H771        H  0.09433234  0.58849458  0.03067287     0.11500
H772        H  0.09912487  0.56309799  0.06197954     0.13400
H773        H  0.11473226  0.58196838  0.08587418     0.09900
H774        H  0.14147359  0.59865031  0.09350324     0.12000
H775        H  0.15161625  0.60698859  0.03784855     0.08600
H776        H  0.12509374  0.59067795  0.03032707     0.11300
C777        C  0.85372132  0.90096034  0.68285462    -0.03300
C778        C  0.84673438  0.89050924  0.66918140    -0.05900
C779        C  0.83736095  0.87504522  0.67316561    -0.20900
C780        C  0.83525810  0.86950126  0.69081963     0.24800
C781        C  0.84266311  0.87974763  0.70443571    -0.18500
C782        C  0.85168350  0.89533234  0.70049364    -0.08500
C783        C  0.82417016  0.85383858  0.69489011    -0.18800
C784        C  0.82708515  0.84333902  0.70903007    -0.23600
C785        C  0.81513572  0.82869270  0.71419020     0.26800
C786        C  0.82216213  0.81366908  0.72254145    -0.20300
C787        C  0.81112347  0.80006742  0.72839685    -0.10000
C788        C  0.79274715  0.80143838  0.72646589    -0.10500
C789        C  0.78569687  0.81659017  0.71826706    -0.03400
C790        C  0.79677562  0.83002400  0.71207692    -0.18600
H791        H  0.84799008  0.89460633  0.65548523     0.10500
H792        H  0.83162271  0.86745889  0.66245942     0.10600
H793        H  0.84093285  0.87612054  0.71820354     0.10300
H794        H  0.85693143  0.90310785  0.71131914     0.11400
H795        H  0.81342012  0.85079690  0.68590246     0.11500
H796        H  0.83885295  0.84528738  0.71697482     0.13400
H797        H  0.83624739  0.81244553  0.72450649     0.09900
H798        H  0.81695929  0.78861099  0.73473210     0.12000
H799        H  0.77160152  0.81804044  0.71658623     0.08600
H800        H  0.79092519  0.84165654  0.70610087     0.11300
C801        C  0.87651785  0.04713779  0.79096928    -0.03300
C802        C  0.89131914  0.03628657  0.78816049    -0.05900
C803        C  0.89216465  0.02516947  0.77340101    -0.20900
C804        C  0.87807715  0.02436235  0.76143646     0.24800
C805        C  0.86338575  0.03539246  0.76402266    -0.18500
C806        C  0.86266655  0.04676023  0.77860213    -0.08500
C807        C  0.87897290  0.01180265  0.74645454    -0.18800
C808        C  0.86488571  0.00242753  0.74122587    -0.23600
C809        C  0.86608307  0.98850919  0.72750821     0.26800
C810        C  0.85592376  0.97316989  0.72934803    -0.20300
C811        C  0.85705551  0.95961548  0.71681380    -0.10000
C812        C  0.86812897  0.96132116  0.70197763    -0.10500
C813        C  0.87802369  0.97690534  0.69997375    -0.03400
C814        C  0.87706186  0.99034100  0.71264359    -0.18600
H815        H  0.90227322  0.03639856  0.79735078     0.10500
H816        H  0.90365602  0.01684671  0.77155504     0.10600
H817        H  0.85250598  0.03527979  0.75474474     0.10300
H818        H  0.85112711  0.05502908  0.78033892     0.11400
H819        H  0.89182380  0.00895635  0.74077755     0.11500
H820        H  0.85249353  0.00389058  0.74829264     0.13400
H821        H  0.84731137  0.97155093  0.74067865     0.09900
H822        H  0.84917918  0.94785069  0.71871590     0.12000
H823        H  0.88659468  0.97871970  0.68865043     0.08600
H824        H  0.88474166  0.00222883  0.71069663     0.11300
C825        C  0.93732736  0.64448149  0.88639078    -0.03300
C826        C  0.95458043  0.63801835  0.88448074    -0.05900
C827        C  0.95928408  0.62154020  0.89133041    -0.20900
C828        C  0.94700882  0.61143786  0.90074193     0.24800
C829        C  0.92956483  0.61761167  0.90228986    -0.18500
C830        C  0.92469626  0.63396487  0.89493504    -0.08500
C831        C  0.95310486  0.59490663  0.90932659    -0.18800
C832        C  0.94886601  0.59090601  0.92615213    -0.23600
C833        C  0.95779743  0.57654420  0.93615361     0.26800
C834        C  0.96099983  0.57890727  0.95429298    -0.20300
C835        C  0.96992685  0.56598397  0.96405686    -0.10000
C836        C  0.97557608  0.55020468  0.95595609    -0.10500
C837        C  0.97208816  0.54769685  0.93781633    -0.03400
C838        C  0.96334496  0.56076304  0.92798765    -0.18600
H839        H  0.96453059  0.64587223  0.87787780     0.10500
H840        H  0.97276269  0.61700359  0.88993480     0.10600
H841        H  0.91980576  0.60989128  0.90930925     0.10300
H842        H  0.91133355  0.63873184  0.89659704     0.11400
H843        H  0.96328878  0.58731978  0.90262856     0.11500
H844        H  0.94017454  0.59973555  0.93344410     0.13400
H845        H  0.95682160  0.59093715  0.96088002     0.09900
H846        H  0.97222812  0.56829672  0.97802727     0.12000
H847        H  0.97607747  0.53562019  0.93121509     0.08600
H848        H  0.96074038  0.55840543  0.91408479     0.11300
C849        C  0.80010460  0.72625102  0.79088466    -0.03300
C850        C  0.79654813  0.72215674  0.80872004    -0.05900
C851        C  0.80944725  0.71421143  0.81937258    -0.20900
C852        C  0.82618093  0.71031514  0.81247983     0.24800
C853        C  0.82962015  0.71413136  0.79455148    -0.18500
C854        C  0.81678502  0.72209490  0.78394098    -0.08500
C855        C  0.83983470  0.70240661  0.82423772    -0.18800
C856        C  0.85709337  0.70554815  0.82179017    -0.23600
C857        C  0.87124535  0.69944604  0.83389827     0.26800
C858        C  0.88659399  0.70959583  0.83470143    -0.20300
C859        C  0.90058867  0.70449541  0.84544105    -0.10000
C860        C  0.89981055  0.68885824  0.85551948    -0.10500
C861        C  0.88450232  0.67845628  0.85462849    -0.03400
C862        C  0.87023707  0.68377375  0.84396701    -0.18600
H863        H  0.78379333  0.72507421  0.81445500     0.10500
H864        H  0.80642727  0.71131422  0.83309882     0.10600
H865        H  0.84213542  0.71076867  0.78856180     0.10300
H866        H  0.81989022  0.72478675  0.77019537     0.11400
H867        H  0.83554197  0.69510768  0.83585034     0.11500
H868        H  0.86108136  0.71435171  0.81115835     0.13400
H869        H  0.88776061  0.72163937  0.82700350     0.09900
H870        H  0.91219353  0.71278853  0.84558689     0.12000
H871        H  0.88354843  0.66631127  0.86217102     0.08600
H872        H  0.85867002  0.67546802  0.84333163     0.11300
C873        C  0.20021652  0.77686655  0.79526743    -0.03300
C874        C  0.20426128  0.78625952  0.81083960    -0.05900
C875        C  0.19086440  0.79370523  0.82123012    -0.20900
C876        C  0.17311194  0.79205322  0.81630052     0.24800
C877        C  0.16904353  0.78230804  0.80091678    -0.18500
C878        C  0.18243256  0.77491570  0.79050326    -0.08500
C879        C  0.15922084  0.79990853  0.82792445    -0.18800
C880        C  0.14282647  0.80377583  0.82220596    -0.23600
C881        C  0.12818116  0.80948532  0.83402745     0.26800
C882        C  0.11096749  0.80498659  0.82908778    -0.20300
C883        C  0.09679756  0.80864114  0.84027077    -0.10000
C884        C  0.09940571  0.81732135  0.85649316    -0.10500
C885        C  0.11644920  0.82286223  0.86106891    -0.03400
C886        C  0.13079650  0.81885099  0.84997423    -0.18600
H887        H  0.21781387  0.78802046  0.81493331     0.10500
H888        H  0.19439964  0.80091653  0.83310608     0.10600
H889        H  0.15555424  0.78002758  0.79697088     0.10300
H890        H  0.17882326  0.76758378  0.77873132     0.11400
H891        H  0.16261466  0.80225849  0.84169584     0.11500
H892        H  0.13948011  0.80154831  0.80841593     0.13400
H893        H  0.10853814  0.79794881  0.81682755     0.09900
H894        H  0.08376438  0.80427670  0.83642365     0.12000
H895        H  0.11877050  0.82950777  0.87356045     0.08600
H896        H  0.14384901  0.82294289  0.85396864     0.11300
C897        C  0.04857360  0.78849407  0.88379117    -0.03300
C898        C  0.05235008  0.77274220  0.87462861    -0.05900
C899        C  0.04073929  0.75844361  0.87541083    -0.20900
C900        C  0.02506348  0.75968193  0.88516962     0.24800
C901        C  0.02162747  0.77516337  0.89490192    -0.18500
C902        C  0.03322988  0.78941228  0.89417772    -0.08500
C903        C  0.01247496  0.74473481  0.88481427    -0.18800
C904        C  0.99499733  0.74716935  0.88658022    -0.23600
C905        C  0.98192255  0.73275234  0.88502678     0.26800
C906        C  0.96468425  0.73715104  0.88002089    -0.20300
C907        C  0.95195528  0.72404527  0.87807009    -0.10000
C908        C  0.95613684  0.70621491  0.88130130    -0.10500
C909        C  0.97328356  0.70182981  0.88682106    -0.03400
C910        C  0.98608134  0.71497168  0.88865770    -0.18600
H911        H  0.06415581  0.77151872  0.86666607     0.10500
H912        H  0.04377985  0.74655558  0.86799726     0.10600
H913        H  0.01000644  0.77633373  0.90312294     0.10300
H914        H  0.03001613  0.80124082  0.90160134     0.11400
H915        H  0.01761474  0.73171443  0.88161790     0.11500
H916        H  0.98984482  0.76050763  0.88794211     0.13400
H917        H  0.96110897  0.75077231  0.87733537     0.09900
H918        H  0.93883508  0.72791697  0.87395230     0.12000
H919        H  0.97688660  0.68822811  0.88952025     0.08600
H920        H  0.99910431  0.71116667  0.89307733     0.11300
C921        C  0.85010334  0.09764612  0.82145760    -0.03300
C922        C  0.83254899  0.09456688  0.81652847    -0.05900
C923        C  0.82115275  0.10871454  0.81312871    -0.20900
C924        C  0.82729892  0.12616099  0.81392695     0.24800
C925        C  0.84472894  0.12928933  0.81942974    -0.18500
C926        C  0.85600397  0.11510473  0.82335613    -0.08500
C927        C  0.81541099  0.14077801  0.80847537    -0.18800
C928        C  0.82099716  0.15418803  0.79818502    -0.23600
C929        C  0.80902123  0.16807214  0.79112105     0.26800
C930        C  0.81265822  0.17563097  0.77452866    -0.20300
C931        C  0.80179990  0.18891422  0.76757411    -0.10000
C932        C  0.78731254  0.19523662  0.77729960    -0.10500
C933        C  0.78376210  0.18777523  0.79400088    -0.03400
C934        C  0.79442797  0.17425251  0.80079996    -0.18600
H935        H  0.82780259  0.08117205  0.81485256     0.10500
H936        H  0.80775314  0.10601037  0.80902622     0.10600
H937        H  0.84968270  0.14266566  0.82043344     0.10300
H938        H  0.86956493  0.11773527  0.82692182     0.11400
H939        H  0.80146946  0.13949283  0.81142304     0.11500
H940        H  0.83459902  0.15426558  0.79369191     0.13400
H941        H  0.82388062  0.17114912  0.76686710     0.09900
H942        H  0.80493820  0.19446769  0.75472745     0.12000
H943        H  0.77269584  0.19237405  0.80181449     0.08600
H944        H  0.79147025  0.16894823  0.81378604     0.11300
C945        C  0.85344253  0.39214015  0.93845028    -0.03300
C946        C  0.85223736  0.40378888  0.95295672    -0.05900
C947        C  0.86676899  0.41346518  0.95856774    -0.20900
C948        C  0.88296057  0.41200577  0.94981112     0.24800
C949        C  0.88423851  0.40067634  0.93500736    -0.18500
C950        C  0.86956606  0.39085608  0.92936026    -0.08500
C951        C  0.89808232  0.42206509  0.95722265    -0.18800
C952        C  0.91295122  0.42591755  0.94832292    -0.23600
C953        C  0.92721113  0.43691432  0.95616232     0.26800
C954        C  0.93802187  0.44686492  0.94488102    -0.20300
C955        C  0.95113996  0.45783076  0.95180949    -0.10000
C956        C  0.95386368  0.45896121  0.97022423    -0.10500
C957        C  0.94335908  0.44862091  0.98150269    -0.03400
C958        C  0.93023594  0.43767346  0.97457093    -0.18600
H959        H  0.84006564  0.40528355  0.96029243     0.10500
H960        H  0.86535376  0.42206223  0.96997112     0.10600
H961        H  0.89658749  0.39893515  0.92808179     0.10300
H962        H  0.87098084  0.38192591  0.91823673     0.11400
H963        H  0.89634731  0.42740840  0.97046144     0.11500
H964        H  0.91425577  0.42204818  0.93454147     0.13400
H965        H  0.93610516  0.44639570  0.93066157     0.09900
H966        H  0.95908394  0.46550074  0.94271477     0.12000
H967        H  0.94525171  0.44898764  0.99572348     0.08600
H968        H  0.92263704  0.42971565  0.98368964     0.11300
C969        C  0.82206384  0.34795204  0.90081758    -0.03300
C970        C  0.81690984  0.33035199  0.90348574    -0.05900
C971        C  0.81242999  0.31961569  0.88916330    -0.20900
C972        C  0.81251430  0.32633393  0.87184200     0.24800
C973        C  0.81846489  0.34377263  0.86901543    -0.18500
C974        C  0.82333043  0.35447321  0.88344150    -0.08500
C975        C  0.80587362  0.31469906  0.85740534    -0.18800
C976        C  0.79805924  0.32070252  0.84251599    -0.23600
C977        C  0.78964083  0.30882110  0.82919326     0.26800
C978        C  0.78759425  0.31483342  0.81171619    -0.20300
C979        C  0.77968522  0.30412784  0.79885200    -0.10000
C980        C  0.77342597  0.28715342  0.80318722    -0.10500
C981        C  0.77505252  0.28129992  0.82079862    -0.03400
C982        C  0.78300069  0.29200267  0.83366002    -0.18600
H983        H  0.81580948  0.32505743  0.91678649     0.10500
H984        H  0.80809696  0.30621620  0.89172191     0.10600
H985        H  0.81915766  0.34923536  0.85578098     0.10300
H986        H  0.82715905  0.36806315  0.88111085     0.11400
H987        H  0.80643826  0.30056668  0.85981943     0.11500
H988        H  0.79759052  0.33482370  0.83997310     0.13400
H989        H  0.79232775  0.32780114  0.80793988     0.09900
H990        H  0.77859864  0.30913736  0.78544825     0.12000
H991        H  0.77021901  0.26840309  0.82466258     0.08600
H992        H  0.78362870  0.28711267  0.84711363     0.11300
C993        C  0.70008273  0.36383609  0.03502212    -0.03300
C994        C  0.69569383  0.37073266  0.01827257    -0.05900
C995        C  0.70806134  0.37072455  0.00454327    -0.20900
C996        C  0.72511396  0.36416269  0.00739620     0.24800
C997        C  0.72941147  0.35698977  0.02404808    -0.18500
C998        C  0.71702447  0.35683310  0.03770079    -0.08500
C999        C  0.73814362  0.36477552  0.99279600    -0.18800
C1000       C  0.75545555  0.36684936  0.99589961    -0.23600
C1001       C  0.76893818  0.36778195  0.98175915     0.26800
C1002       C  0.78481790  0.37642145  0.98546720    -0.20300
C1003       C  0.79818155  0.37715077  0.97282308    -0.10000
C1004       C  0.79605262  0.36900785  0.95622300    -0.10500
C1005       C  0.78017059  0.36024054  0.95250847    -0.03400
C1006       C  0.76670916  0.35964309  0.96514736    -0.18600
H1007       H  0.68268509  0.37607055  0.01574205     0.10500
H1008       H  0.70440686  0.37613526  0.99175914     0.10600
H1009       H  0.74227293  0.35130269  0.02652289     0.10300
H1010       H  0.72079017  0.35134064  0.05041004     0.11400
H1011       H  0.73323983  0.36460681  0.97928059     0.11500
H1012       H  0.75994879  0.36885102  0.00941886     0.13400
H1013       H  0.78689423  0.38266036  0.99822114     0.09900
H1014       H  0.81027469  0.38393113  0.97617575     0.12000
H1015       H  0.77815170  0.35378548  0.93986356     0.08600
H1016       H  0.75480994  0.35245797  0.96201363     0.11300
C1017       C  0.79945932  0.26750710  0.71204356    -0.03300
C1018       C  0.80974587  0.25554248  0.70223179    -0.05900
C1019       C  0.82344139  0.26161061  0.69141684    -0.20900
C1020       C  0.82712927  0.27976787  0.68998410     0.24800
C1021       C  0.81686963  0.29176947  0.69982361    -0.18500
C1022       C  0.80320396  0.28569592  0.71069677    -0.08500
C1023       C  0.84236342  0.28539161  0.67888152    -0.18800
C1024       C  0.84512865  0.30201002  0.67287359    -0.23600
C1025       C  0.86099196  0.30677215  0.66223802     0.26800
C1026       C  0.86023818  0.32063382  0.64978750    -0.20300
C1027       C  0.87483502  0.32450110  0.63897430    -0.10000
C1028       C  0.89045297  0.31459671  0.64055531    -0.10500
C1029       C  0.89142676  0.30148144  0.65376514    -0.03400
C1030       C  0.87698457  0.29767791  0.66447868    -0.18600
H1031       H  0.80730642  0.24146057  0.70299212     0.10500
H1032       H  0.83123277  0.25203210  0.68413928     0.10600
H1033       H  0.81954113  0.30580089  0.69951072     0.10300
H1034       H  0.79562316  0.29529727  0.71815031     0.11400
H1035       H  0.85154203  0.27503678  0.67505756     0.11500
H1036       H  0.83528805  0.31220432  0.67506576     0.13400
H1037       H  0.84816455  0.32809767  0.64803995     0.09900
H1038       H  0.87368933  0.33474500  0.62900911     0.12000
H1039       H  0.90336870  0.29385265  0.65570397     0.08600
H1040       H  0.87843114  0.28753721  0.67449550     0.11300
C1041       C  0.03944495  0.21000491  0.61835825    -0.03300
C1042       C  0.04289344  0.22793475  0.62180332    -0.05900
C1043       C  0.02961476  0.24063190  0.61988844    -0.20900
C1044       C  0.01256676  0.23567078  0.61478089     0.24800
C1045       C  0.00907710  0.21775501  0.61131725    -0.18500
C1046       C  0.02237916  0.20507394  0.61308228    -0.08500
C1047       C  0.99889613  0.24955341  0.61271272    -0.18800
C1048       C  0.98162609  0.24649692  0.61521915    -0.23600
C1049       C  0.96826855  0.26076761  0.61424305     0.26800
C1050       C  0.95365836  0.26009670  0.62555586    -0.20300
C1051       C  0.94128177  0.27378476  0.62561382    -0.10000
C1052       C  0.94314833  0.28834907  0.61415291    -0.10500
C1053       C  0.95742490  0.28863592  0.60228950    -0.03400
C1054       C  0.96987589  0.27498023  0.60233508    -0.18600
H1055       H  0.05590025  0.23221047  0.62579992     0.10500
H1056       H  0.03263828  0.25437723  0.62251949     0.10600
H1057       H  0.99620385  0.21352487  0.60689292     0.10300
H1058       H  0.01927528  0.19139659  0.61024150     0.11400
H1059       H  0.00333130  0.26297327  0.61020829     0.11500
H1060       H  0.97728210  0.23353556  0.61958498     0.13400
H1061       H  0.95207292  0.24917927  0.63471860     0.09900
H1062       H  0.93039997  0.27305177  0.63485905     0.12000
H1063       H  0.95911908  0.29950983  0.59310870     0.08600
H1064       H  0.98072617  0.27555328  0.59304842     0.11300
C1065       C  0.60329683  0.18446392  0.86549634    -0.03300
C1066       C  0.61704731  0.17194686  0.86527513    -0.05900
C1067       C  0.63270716  0.17541720  0.85595782    -0.20900
C1068       C  0.63482621  0.19134965  0.84657925     0.24800
C1069       C  0.62126845  0.20400550  0.84728191    -0.18500
C1070       C  0.60575687  0.20058640  0.85651323    -0.08500
C1071       C  0.65136141  0.19492322  0.83655194    -0.18800
C1072       C  0.65143341  0.20518191  0.82190965    -0.23600
C1073       C  0.66741580  0.21058399  0.81187054     0.26800
C1074       C  0.66513461  0.21714850  0.79462792    -0.20300
C1075       C  0.67938286  0.22372135  0.78499923    -0.10000
C1076       C  0.69636889  0.22407024  0.79240922    -0.10500
C1077       C  0.69875870  0.21736691  0.80965676    -0.03400
C1078       C  0.68442717  0.21068746  0.81931471    -0.18600
H1079       H  0.61565979  0.15945578  0.87214567     0.10500
H1080       H  0.64307099  0.16554665  0.85584963     0.10600
H1081       H  0.62266637  0.21674265  0.84089986     0.10300
H1082       H  0.59567176  0.21073804  0.85659966     0.11400
H1083       H  0.66344483  0.18869334  0.84107277     0.11500
H1084       H  0.63891007  0.20981016  0.81668406     0.13400
H1085       H  0.65218482  0.21734095  0.78858990     0.09900
H1086       H  0.67701153  0.22867491  0.77174248     0.12000
H1087       H  0.71167578  0.21739370  0.81574180     0.08600
H1088       H  0.68666088  0.20610222  0.83270622     0.11300
C1089       C  0.45912963  0.29520849  0.86673956    -0.03300
C1090       C  0.47606786  0.30041068  0.87216736    -0.05900
C1091       C  0.49001812  0.28834270  0.87215949    -0.20900
C1092       C  0.48735417  0.27077384  0.86692304     0.24800
C1093       C  0.47057741  0.26565131  0.86092867    -0.18500
C1094       C  0.45660643  0.27774882  0.86086684    -0.08500
C1095       C  0.50236028  0.25820965  0.86792036    -0.18800
C1096       C  0.50024275  0.24080007  0.87094824    -0.23600
C1097       C  0.51519919  0.22834883  0.87339813     0.26800
C1098       C  0.51245333  0.21285495  0.88323194    -0.20300
C1099       C  0.52615482  0.20077441  0.88589303    -0.10000
C1100       C  0.54290266  0.20382842  0.87857317    -0.10500
C1101       C  0.54560702  0.21927116  0.86854887    -0.03400
C1102       C  0.53191025  0.23138876  0.86595239    -0.18600
H1103       H  0.47854773  0.31376929  0.87666600     0.10500
H1104       H  0.50286080  0.29264978  0.87666070     0.10600
H1105       H  0.46820903  0.25235509  0.85621889     0.10300
H1106       H  0.44379936  0.27335575  0.85637383     0.11400
H1107       H  0.51552495  0.26376380  0.86765152     0.11500
H1108       H  0.48707097  0.23562067  0.87298551     0.13400
H1109       H  0.49967570  0.21014786  0.88900594     0.09900
H1110       H  0.52356212  0.18898797  0.89360789     0.12000
H1111       H  0.55829702  0.22198694  0.86260410     0.08600
H1112       H  0.53440857  0.24291550  0.85785081     0.11300
C1113       C  0.18996957  0.86386356  0.60741916    -0.03300
C1114       C  0.20271614  0.85067193  0.60441984    -0.05900
C1115       C  0.20804539  0.83939980  0.61802505    -0.20900
C1116       C  0.20080974  0.84090280  0.63504708     0.24800
C1117       C  0.18744326  0.85359421  0.63795134    -0.18500
C1118       C  0.18201356  0.86490738  0.62419734    -0.08500
C1119       C  0.20855846  0.82971589  0.64934775    -0.18800
C1120       C  0.20141520  0.82727699  0.66549610    -0.23600
C1121       C  0.20989916  0.81602600  0.67928940     0.26800
C1122       C  0.19925661  0.80755712  0.69186344    -0.20300
C1123       C  0.20671488  0.79663467  0.70482280    -0.10000
C1124       C  0.22507090  0.79412390  0.70568579    -0.10500
C1125       C  0.23579649  0.80301898  0.69341461    -0.03400
C1126       C  0.22831036  0.81384866  0.68035504    -0.18600
H1127       H  0.20899811  0.84934331  0.59159842     0.10500
H1128       H  0.21825570  0.82973021  0.61531624     0.10600
H1129       H  0.18163057  0.85538013  0.65089997     0.10300
H1130       H  0.17223992  0.87499931  0.62692805     0.11400
H1131       H  0.22069418  0.82278062  0.64615696     0.11500
H1132       H  0.18857482  0.83282049  0.66850509     0.13400
H1133       H  0.18507974  0.80917770  0.69148918     0.09900
H1134       H  0.19805850  0.79014381  0.71417902     0.12000
H1135       H  0.24998102  0.80152893  0.69382090     0.08600
H1136       H  0.23700286  0.82065480  0.67128380     0.11300
C1137       C  0.28680418  0.89090012  0.45665914    -0.03300
C1138       C  0.26991232  0.88363215  0.45452473    -0.05900
C1139       C  0.25710369  0.88586270  0.46762884    -0.20900
C1140       C  0.26097213  0.89516175  0.48321692     0.24800
C1141       C  0.27772113  0.90279061  0.48520669    -0.18500
C1142       C  0.29049385  0.90067670  0.47205823    -0.08500
C1143       C  0.24725370  0.89667004  0.49709646    -0.18800
C1144       C  0.25113023  0.89790006  0.51444686    -0.23600
C1145       C  0.23741774  0.89756999  0.52837530     0.26800
C1146       C  0.24132328  0.88955443  0.54465934    -0.20300
C1147       C  0.22841143  0.88807375  0.55773857    -0.10000
C1148       C  0.21141844  0.89493237  0.55490623    -0.10500
C1149       C  0.20773082  0.90365264  0.53887277    -0.03400
C1150       C  0.22059243  0.90490723  0.52568607    -0.18600
H1151       H  0.26658791  0.87613831  0.44277120     0.10500
H1152       H  0.24423276  0.88000139  0.46574200     0.10600
H1153       H  0.28096852  0.91050787  0.49682198     0.10300
H1154       H  0.30332437  0.90656726  0.47407077     0.11400
H1155       H  0.23361148  0.89520945  0.49301983     0.11500
H1156       H  0.26478395  0.89744096  0.51871399     0.13400
H1157       H  0.25426569  0.88398362  0.54707785     0.09900
H1158       H  0.23171977  0.88145946  0.57003323     0.12000
H1159       H  0.19479447  0.90917307  0.53635043     0.08600
H1160       H  0.21735686  0.91162521  0.51343775     0.11300
C1161       C  0.05988019  0.14950407  0.60834867    -0.03300
C1162       C  0.04275859  0.14280348  0.61030363    -0.05900
C1163       C  0.03777704  0.12716541  0.60193545    -0.20900
C1164       C  0.04962672  0.11797218  0.59105010     0.24800
C1165       C  0.06705118  0.12426485  0.58956808    -0.18500
C1166       C  0.07215865  0.13988044  0.59827439    -0.08500
C1167       C  0.04293057  0.10214199  0.58145663    -0.18800
C1168       C  0.04966364  0.09599295  0.56611695    -0.23600
C1169       C  0.04145558  0.08129203  0.55586376     0.26800
C1170       C  0.05200420  0.07126642  0.54435976    -0.20300
C1171       C  0.04476006  0.05748860  0.53437916    -0.10000
C1172       C  0.02667646  0.05352140  0.53546791    -0.10500
C1173       C  0.01601219  0.06381567  0.54667819    -0.03400
C1174       C  0.02328798  0.07755129  0.55673927    -0.18600
H1175       H  0.03303798  0.14991740  0.61805315     0.10500
H1176       H  0.02435852  0.12256929  0.60347693     0.10600
H1177       H  0.07670119  0.11728125  0.58166242     0.10300
H1178       H  0.08541606  0.14482579  0.59650817     0.11400
H1179       H  0.03122668  0.09594410  0.58686077     0.11500
H1180       H  0.06150277  0.10192014  0.56070502     0.13400
H1181       H  0.06595952  0.07399846  0.54320942     0.09900
H1182       H  0.05337447  0.04994311  0.52578062     0.12000
H1183       H  0.00202277  0.06125409  0.54770501     0.08600
H1184       H  0.01454091  0.08538566  0.56489651     0.11300
C1185       C  0.15349598  0.91080610  0.57858627    -0.03300
C1186       C  0.15491143  0.92820441  0.57223111    -0.05900
C1187       C  0.13990931  0.93795740  0.56785947    -0.20900
C1188       C  0.12310277  0.93045916  0.56933120     0.24800
C1189       C  0.12154622  0.91334571  0.57660204    -0.18500
C1190       C  0.13666064  0.90363912  0.58131250    -0.08500
C1191       C  0.10784340  0.94086897  0.56254318    -0.18800
C1192       C  0.09296611  0.93360550  0.55605685    -0.23600
C1193       C  0.07899170  0.94409671  0.54687467     0.26800
C1194       C  0.06177417  0.93739706  0.54605044    -0.20300
C1195       C  0.04843782  0.94668914  0.53713871    -0.10000
C1196       C  0.05206552  0.96285159  0.52864519    -0.10500
C1197       C  0.06938336  0.96938029  0.52919457    -0.03400
C1198       C  0.08267890  0.96012439  0.53812142    -0.18600
H1199       H  0.16772843  0.93412082  0.57014036     0.10500
H1200       H  0.14150939  0.95116304  0.56253180     0.10600
H1201       H  0.10875941  0.90733894  0.57843372     0.10300
H1202       H  0.13522522  0.89025771  0.58620663     0.11400
H1203       H  0.10960289  0.95507550  0.56167041     0.11500
H1204       H  0.09102380  0.91942952  0.55705849     0.13400
H1205       H  0.05859848  0.92497568  0.55243870     0.09900
H1206       H  0.03526820  0.94123165  0.53696806     0.12000
H1207       H  0.07271726  0.98168965  0.52268412     0.08600
H1208       H  0.09587910  0.96544279  0.53776859     0.11300
C1209       C  0.95880781  0.98304979  0.54952939    -0.03300
C1210       C  0.94618394  0.99502118  0.55601888    -0.05900
C1211       C  0.93436630  0.98989464  0.56928015    -0.20900
C1212       C  0.93481687  0.97269889  0.57633281     0.24800
C1213       C  0.94740168  0.96067357  0.56979346    -0.18500
C1214       C  0.95919481  0.96578570  0.55650591    -0.08500
C1215       C  0.92291067  0.96835361  0.59137652    -0.18800
C1216       C  0.91896936  0.95177905  0.59669398    -0.23600
C1217       C  0.90844846  0.94814770  0.61293761     0.26800
C1218       C  0.89882926  0.93235070  0.61439380    -0.20300
C1219       C  0.88917086  0.92857113  0.62979960    -0.10000
C1220       C  0.88909743  0.94049229  0.64410392    -0.10500
C1221       C  0.89900240  0.95613025  0.64267250    -0.03400
C1222       C  0.90859461  0.95986487  0.62738183    -0.18600
H1223       H  0.94545787  0.00838116  0.55089569     0.10500
H1224       H  0.92490473  0.99947428  0.57416198     0.10600
H1225       H  0.94857074  0.94747868  0.57519512     0.10300
H1226       H  0.96881820  0.95624777  0.55188644     0.11400
H1227       H  0.91703725  0.97947090  0.59832534     0.11500
H1228       H  0.92328027  0.94052206  0.58889493     0.13400
H1229       H  0.89870746  0.92297250  0.60354573     0.09900
H1230       H  0.88176586  0.91637453  0.63048521     0.12000
H1231       H  0.89954906  0.96552291  0.65348733     0.08600
H1232       H  0.91641928  0.97179540  0.62712873     0.11300
C1233       C  0.45109241  0.53844380  0.97330706    -0.03300
C1234       C  0.45482917  0.55357895  0.96315928    -0.05900
C1235       C  0.44115791  0.56369995  0.95588221    -0.20900
C1236       C  0.42351825  0.55887030  0.95853096     0.24800
C1237       C  0.41980644  0.54399276  0.96911097    -0.18500
C1238       C  0.43343343  0.53384360  0.97627799    -0.08500
C1239       C  0.40927623  0.56995463  0.95074006    -0.18800
C1240       C  0.39316533  0.56350347  0.94709930    -0.23600
C1241       C  0.37800506  0.57451226  0.94135950     0.26800
C1242       C  0.36106473  0.56852805  0.94556479    -0.20300
C1243       C  0.34630512  0.57868391  0.94141739    -0.10000
C1244       C  0.34808843  0.59493070  0.93260132    -0.10500
C1245       C  0.36495723  0.60065261  0.92760653    -0.03400
C1246       C  0.37986293  0.59057530  0.93207120    -0.18600
H1247       H  0.46831579  0.55746484  0.96063126     0.10500
H1248       H  0.44436767  0.57522087  0.94799246     0.10600
H1249       H  0.40641243  0.54025563  0.97218278     0.10300
H1250       H  0.43011119  0.52242490  0.98426577     0.11400
H1251       H  0.41215571  0.58377619  0.94821797     0.11500
H1252       H  0.39050745  0.54960222  0.94941560     0.13400
H1253       H  0.35925622  0.55614585  0.95255769     0.09900
H1254       H  0.33343361  0.57387367  0.94527284     0.12000
H1255       H  0.36664418  0.61313982  0.92079014     0.08600
H1256       H  0.39271835  0.59536217  0.92821822     0.11300
C1257       C  0.54965710  0.45449178  0.01712920    -0.03300
C1258       C  0.55945017  0.44470683  0.00475100    -0.05900
C1259       C  0.57289297  0.43337239  0.01034002    -0.20900
C1260       C  0.57688359  0.43143112  0.02842093     0.24800
C1261       C  0.56687434  0.44098927  0.04088911    -0.18500
C1262       C  0.55340142  0.45237428  0.03527638    -0.08500
C1263       C  0.59225451  0.42016769  0.03329365    -0.18800
C1264       C  0.59710634  0.41576754  0.04994346    -0.23600
C1265       C  0.61360223  0.40570413  0.05355150     0.26800
C1266       C  0.61483307  0.39459873  0.06845614    -0.20300
C1267       C  0.63015928  0.38461899  0.07159628    -0.10000
C1268       C  0.64455935  0.38572509  0.05992302    -0.10500
C1269       C  0.64349781  0.39747071  0.04548986    -0.03400
C1270       C  0.62832195  0.40736781  0.04240606    -0.18600
H1271       H  0.55693666  0.44600647  0.99068163     0.10500
H1272       H  0.58040310  0.42626485  0.00041133     0.10600
H1273       H  0.56956473  0.44012149  0.05492033     0.10300
H1274       H  0.54605246  0.45968609  0.04516854     0.11400
H1275       H  0.60010599  0.41522243  0.02232565     0.11500
H1276       H  0.58882516  0.41915010  0.06114345     0.13400
H1277       H  0.60378325  0.39334771  0.07744474     0.09900
H1278       H  0.63059472  0.37582286  0.08291406     0.12000
H1279       H  0.65441602  0.39902223  0.03639185     0.08600
H1280       H  0.62825811  0.41642065  0.03129606     0.11300
C1281       C  0.43719147  0.35399177  0.88226135    -0.03300
C1282       C  0.45377424  0.36145803  0.87879845    -0.05900
C1283       C  0.45913261  0.37690654  0.88732150    -0.20900
C1284       C  0.44824385  0.38520248  0.89982961     0.24800
C1285       C  0.43127858  0.37819433  0.90282715    -0.18500
C1286       C  0.42577405  0.36275229  0.89401812    -0.08500
C1287       C  0.45541016  0.40090021  0.90940404    -0.18800
C1288       C  0.44996141  0.40627492  0.92555381    -0.23600
C1289       C  0.45844559  0.42093868  0.93573390     0.26800
C1290       C  0.44885195  0.42918706  0.94933499    -0.20300
C1291       C  0.45640839  0.44258677  0.95961922    -0.10000
C1292       C  0.47391238  0.44796372  0.95675430    -0.10500
C1293       C  0.48362040  0.43961430  0.94325039    -0.03400
C1294       C  0.47601067  0.42627195  0.93286624    -0.18600
H1295       H  0.46284756  0.35506994  0.86973705     0.10500
H1296       H  0.47215504  0.38205333  0.88456923     0.10600
H1297       H  0.42228955  0.38447671  0.91200181     0.10300
H1298       H  0.41295140  0.35725396  0.89697941     0.11400
H1299       H  0.46633716  0.40768195  0.90314546     0.11500
H1300       H  0.43895066  0.39961145  0.93180189     0.13400
H1301       H  0.43540105  0.42525888  0.95201462     0.09900
H1302       H  0.44854565  0.44862061  0.96996359     0.12000
H1303       H  0.49715338  0.44334200  0.94073411     0.08600
H1304       H  0.48412756  0.41993178  0.92294842     0.11300
C1305       C  0.46322613  0.47747910  0.05015044    -0.03300
C1306       C  0.46982017  0.47996664  0.06736797    -0.05900
C1307       C  0.46021040  0.47441150  0.08211553    -0.20900
C1308       C  0.44389273  0.46598856  0.08008056     0.24800
C1309       C  0.43720396  0.46346239  0.06287067    -0.18500
C1310       C  0.44677221  0.46921225  0.04805162    -0.08500
C1311       C  0.43393177  0.46113999  0.09632154    -0.18800
C1312       C  0.42122105  0.44872404  0.09709675    -0.23600
C1313       C  0.41152200  0.44497905  0.11383337     0.26800
C1314       C  0.40524788  0.42786501  0.11742803    -0.20300
C1315       C  0.39677296  0.42410291  0.13355686    -0.10000
C1316       C  0.39432089  0.43747632  0.14628143    -0.10500
C1317       C  0.39994456  0.45472895  0.14222800    -0.03400
C1318       C  0.40833572  0.45844164  0.12624735    -0.18600
H1319       H  0.48238571  0.48637232  0.06949153     0.10500
H1320       H  0.46558185  0.47670466  0.09521642     0.10600
H1321       H  0.42446181  0.45743751  0.06080812     0.10300
H1322       H  0.44131453  0.46714197  0.03495896     0.11400
H1323       H  0.43779141  0.46780225  0.10846157     0.11500
H1324       H  0.41837939  0.44064328  0.08556754     0.13400
H1325       H  0.40731089  0.41731092  0.10794608     0.09900
H1326       H  0.39253409  0.41070281  0.13621917     0.12000
H1327       H  0.39799422  0.46548658  0.15149797     0.08600
H1328       H  0.41226333  0.47194373  0.12364766     0.11300
C1329       C  0.39283632  0.55259476  0.28739830    -0.03300
C1330       C  0.38763653  0.55709128  0.27008590    -0.05900
C1331       C  0.38800472  0.54448184  0.25657326    -0.20900
C1332       C  0.39339707  0.52707461  0.26006657     0.24800
C1333       C  0.39930623  0.52272999  0.27720805    -0.18500
C1334       C  0.39899112  0.53535777  0.29072626    -0.08500
C1335       C  0.39261518  0.51389158  0.24551544    -0.18800
C1336       C  0.39089589  0.49639520  0.24837059    -0.23600
C1337       C  0.38889858  0.48318386  0.23394539     0.26800
C1338       C  0.38154973  0.46667947  0.23806314    -0.20300
C1339       C  0.37934755  0.45383664  0.22495815    -0.10000
C1340       C  0.38459369  0.45716959  0.20740972    -0.10500
C1341       C  0.39215717  0.47362066  0.20330920    -0.03400
C1342       C  0.39435324  0.48646882  0.21642236    -0.18600
H1343       H  0.38302919  0.57030047  0.26699113     0.10500
H1344       H  0.38364004  0.54823825  0.24342570     0.10600
H1345       H  0.40421571  0.50964120  0.28026613     0.10300
H1346       H  0.40331118  0.53150438  0.30385261     0.11400
H1347       H  0.39208136  0.51900479  0.23209460     0.11500
H1348       H  0.38977264  0.49154359  0.26186007     0.13400
H1349       H  0.37737012  0.46374126  0.25147253     0.09900
H1350       H  0.37357518  0.44127730  0.22862307     0.12000
H1351       H  0.39647251  0.47658552  0.18995718     0.08600
H1352       H  0.40058847  0.49877282  0.21276225     0.11300
C1353       C  0.72526664  0.79193536  0.79736647    -0.03300
C1354       C  0.71744078  0.80831430  0.79324946    -0.05900
C1355       C  0.70913388  0.81835497  0.80646702    -0.20900
C1356       C  0.70836731  0.81221801  0.82403028     0.24800
C1357       C  0.71651247  0.79597129  0.82815256    -0.18500
C1358       C  0.72472692  0.78595130  0.81498670    -0.08500
C1359       C  0.69999378  0.82349524  0.83790715    -0.18800
C1360       C  0.69450271  0.81709453  0.85363577    -0.23600
C1361       C  0.68924053  0.82847335  0.86874705     0.26800
C1362       C  0.69374143  0.82285041  0.88586093    -0.20300
C1363       C  0.69028088  0.83354438  0.90050161    -0.10000
C1364       C  0.68173566  0.84989265  0.89842843    -0.10500
C1365       C  0.67635861  0.85520967  0.88141859    -0.03400
C1366       C  0.68026207  0.84465425  0.86661193    -0.18600
H1367       H  0.71760544  0.81331267  0.77979928     0.10500
H1368       H  0.70321536  0.83092480  0.80294714     0.10600
H1369       H  0.71699911  0.79101499  0.84157680     0.10300
H1370       H  0.73075775  0.77349046  0.81868482     0.11400
H1371       H  0.69899394  0.83759077  0.83531655     0.11500
H1372       H  0.69533538  0.80302624  0.85628559     0.13400
H1373       H  0.70053470  0.81038634  0.88785240     0.09900
H1374       H  0.69443899  0.82908731  0.91349668     0.12000
H1375       H  0.66974693  0.86777666  0.87952317     0.08600
H1376       H  0.67629366  0.84914206  0.85358363     0.11300
C1377       C  0.77422994  0.78470740  0.19739080    -0.03300
C1378       C  0.78797610  0.77712830  0.18750350    -0.05900
C1379       C  0.79502594  0.78600162  0.17291064    -0.20900
C1380       C  0.78893492  0.80289676  0.16828478     0.24800
C1381       C  0.77527383  0.81062253  0.17826828    -0.18500
C1382       C  0.76782932  0.80148339  0.19259731    -0.08500
C1383       C  0.79625924  0.81155495  0.15227788    -0.18800
C1384       C  0.79882306  0.82912271  0.15099436    -0.23600
C1385       C  0.80514388  0.83764027  0.13441148     0.26800
C1386       C  0.81491302  0.85340205  0.13522466    -0.20300
C1387       C  0.81969439  0.86236652  0.11964830    -0.10000
C1388       C  0.81432507  0.85590927  0.10307843    -0.10500
C1389       C  0.80489341  0.83997396  0.10228972    -0.03400
C1390       C  0.80042598  0.83089412  0.11773067    -0.18600
H1391       H  0.79303457  0.76414336  0.19086523     0.10500
H1392       H  0.80536587  0.77970485  0.16526901     0.10600
H1393       H  0.77005381  0.82348472  0.17472536     0.10300
H1394       H  0.75723923  0.80757703  0.20004797     0.11400
H1395       H  0.80032482  0.80301444  0.14144431     0.11500
H1396       H  0.79646523  0.83746750  0.16247365     0.13400
H1397       H  0.81858791  0.85891991  0.14793771     0.09900
H1398       H  0.82677985  0.87474123  0.12058797     0.12000
H1399       H  0.80053670  0.83475727  0.08966104     0.08600
H1400       H  0.79255557  0.81903804  0.11657118     0.11300
C1401       C  0.70591763  0.87301939  0.95395255    -0.03300
C1402       C  0.72234452  0.86527488  0.95012276    -0.05900
C1403       C  0.73601712  0.86578575  0.96251030    -0.20900
C1404       C  0.73352545  0.87378302  0.97909225     0.24800
C1405       C  0.71715895  0.88167666  0.98290997    -0.18500
C1406       C  0.70351835  0.88130419  0.97046070    -0.08500
C1407       C  0.74846422  0.87422535  0.99177623    -0.18800
C1408       C  0.74632058  0.87514573  0.00947131    -0.23600
C1409       C  0.76132299  0.87550410  0.02208584     0.26800
C1410       C  0.75885293  0.86910897  0.03936295    -0.20300
C1411       C  0.77270166  0.86922289  0.05157896    -0.10000
C1412       C  0.78927456  0.87599169  0.04682325    -0.10500
C1413       C  0.79160973  0.88278821  0.02963773    -0.03400
C1414       C  0.77780593  0.88254924  0.01740041    -0.18600
H1415       H  0.72470979  0.85890498  0.93749148     0.10500
H1416       H  0.74856078  0.85978451  0.95917615     0.10600
H1417       H  0.71492825  0.88844660  0.99533948     0.10300
H1418       H  0.69107872  0.88749706  0.97380245     0.11400
H1419       H  0.76163194  0.87283472  0.98632825     0.11500
H1420       H  0.73314053  0.87470379  0.01503309     0.13400
H1421       H  0.74621616  0.86381110  0.04335694     0.09900
H1422       H  0.77040141  0.86401910  0.06474715     0.12000
H1423       H  0.80415442  0.88822537  0.02556282     0.08600
H1424       H  0.78003627  0.88814280  0.00439714     0.11300
C1425       C  0.93314791  0.85075759  0.39609688    -0.03300
C1426       C  0.92353863  0.86654916  0.39414495    -0.05900
C1427       C  0.92859801  0.88186030  0.40332370    -0.20900
C1428       C  0.94322908  0.88169368  0.41476372     0.24800
C1429       C  0.95271484  0.86582322  0.41680463    -0.18500
C1430       C  0.94767529  0.85059620  0.40770130    -0.08500
C1431       C  0.94877808  0.89841649  0.42363922    -0.18800
C1432       C  0.95888221  0.89877545  0.43836437    -0.23600
C1433       C  0.96516724  0.91522300  0.44719962     0.26800
C1434       C  0.97124670  0.91404797  0.46473431    -0.20300
C1435       C  0.97784788  0.92890643  0.47349212    -0.10000
C1436       C  0.97869953  0.94537496  0.46487747    -0.10500
C1437       C  0.97269805  0.94658578  0.44727210    -0.03400
C1438       C  0.96604371  0.93168439  0.43849901    -0.18600
H1439       H  0.91236023  0.86719400  0.38525980     0.10500
H1440       H  0.92112794  0.89392995  0.40137558     0.10600
H1441       H  0.96439710  0.86513264  0.42496410     0.10300
H1442       H  0.95550133  0.83873942  0.40952690     0.11400
H1443       H  0.94393246  0.91072476  0.41806180     0.11500
H1444       H  0.96234829  0.88640478  0.44477626     0.13400
H1445       H  0.97088151  0.90153854  0.47173454     0.09900
H1446       H  0.98233777  0.92744496  0.48703572     0.12000
H1447       H  0.97321690  0.95904768  0.44021611     0.08600
H1448       H  0.96196956  0.93310204  0.42484522     0.11300
C1449       C  0.79695515  0.77802082  0.29024769    -0.03300
C1450       C  0.79427071  0.78133349  0.30838070    -0.05900
C1451       C  0.80714047  0.79005896  0.31840388    -0.20900
C1452       C  0.82294394  0.79574117  0.31055890     0.24800
C1453       C  0.82529024  0.79295023  0.29223457    -0.18500
C1454       C  0.81256443  0.78404818  0.28230606    -0.08500
C1455       C  0.83673177  0.80404539  0.32198750    -0.18800
C1456       C  0.85375898  0.80543275  0.31708067    -0.23600
C1457       C  0.86835738  0.81090080  0.32903647     0.26800
C1458       C  0.88540599  0.80527608  0.32461709    -0.20300
C1459       C  0.89954590  0.80862270  0.33585547    -0.10000
C1460       C  0.89712873  0.81800560  0.35171845    -0.10500
C1461       C  0.88028869  0.82460839  0.35579447    -0.03400
C1462       C  0.86593787  0.82099431  0.34457860    -0.18600
H1463       H  0.78231759  0.77700535  0.31487864     0.10500
H1464       H  0.80484472  0.79213412  0.33242010     0.10600
H1465       H  0.83680735  0.79766026  0.28531263     0.10300
H1466       H  0.81490435  0.78206188  0.26828603     0.11400
H1467       H  0.83297684  0.80768539  0.33537567     0.11500
H1468       H  0.85775567  0.80059871  0.30418401     0.13400
H1469       H  0.88774085  0.79768817  0.31266168     0.09900
H1470       H  0.91241787  0.80355907  0.33225056     0.12000
H1471       H  0.87810967  0.83192489  0.36793706     0.08600
H1472       H  0.85306384  0.82597829  0.34818289     0.11300
C1473       C  0.04266264  0.70745762  0.37870745    -0.03300
C1474       C  0.04802309  0.72509989  0.37659091    -0.05900
C1475       C  0.03576074  0.73886369  0.37764529    -0.20900
C1476       C  0.01787217  0.73527402  0.38051607     0.24800
C1477       C  0.01253984  0.71765201  0.38303506    -0.18500
C1478       C  0.02482259  0.70389734  0.38215038    -0.08500
C1479       C  0.00522827  0.75023492  0.38108511    -0.18800
C1480       C  0.98812107  0.74855714  0.37670726    -0.23600
C1481       C  0.97552025  0.76359065  0.37670640     0.26800
C1482       C  0.96035217  0.76249608  0.36614955    -0.20300
C1483       C  0.94813006  0.77634044  0.36582859    -0.10000
C1484       C  0.95075823  0.79154228  0.37621475    -0.10500
C1485       C  0.96583075  0.79251539  0.38698443    -0.03400
C1486       C  0.97804766  0.77868695  0.38728366    -0.18600
H1487       H  0.06170747  0.72829011  0.37415358     0.10500
H1488       H  0.04021931  0.75235126  0.37591601     0.10600
H1489       H  0.99895523  0.71443139  0.38588343     0.10300
H1490       H  0.02029156  0.69045242  0.38398338     0.11400
H1491       H  0.01051616  0.76320788  0.38408721     0.11500
H1492       H  0.98329823  0.73590649  0.37198315     0.13400
H1493       H  0.95802004  0.75094214  0.35800382     0.09900
H1494       H  0.93663640  0.77510992  0.35742526     0.12000
H1495       H  0.96820890  0.80395772  0.39525954     0.08600
H1496       H  0.98925332  0.77979574  0.39605516     0.11300
C1497       C  0.64115734  0.89678115  0.31253501    -0.03300
C1498       C  0.64210249  0.88283341  0.32481317    -0.05900
C1499       C  0.65075010  0.86699894  0.32039508    -0.20900
C1500       C  0.65854271  0.86471127  0.30362079     0.24800
C1501       C  0.65745855  0.87867132  0.29134454    -0.18500
C1502       C  0.64880198  0.89436308  0.29570114    -0.08500
C1503       C  0.66859803  0.84814828  0.29977122    -0.18800
C1504       C  0.67285486  0.84281322  0.28320821    -0.23600
C1505       C  0.68416443  0.82722783  0.27880266     0.26800
C1506       C  0.68659830  0.82292821  0.26083696    -0.20300
C1507       C  0.69766342  0.80899711  0.25578902    -0.10000
C1508       C  0.70665834  0.79897380  0.26860724    -0.10500
C1509       C  0.70414289  0.80312412  0.28660609    -0.03400
C1510       C  0.69307760  0.81708099  0.29166888    -0.18600
H1511       H  0.63643126  0.88424056  0.33790111     0.10500
H1512       H  0.65150973  0.85654946  0.33019467     0.10600
H1513       H  0.66373232  0.87791423  0.27851764     0.10300
H1514       H  0.64848984  0.90479432  0.28586558     0.11400
H1515       H  0.67248399  0.84024471  0.31109308     0.11500
H1516       H  0.66780798  0.85022938  0.27199947     0.13400
H1517       H  0.68002645  0.83051074  0.25058664     0.09900
H1518       H  0.69930135  0.80621083  0.24180794     0.12000
H1519       H  0.71087322  0.79567636  0.29684096     0.08600
H1520       H  0.69188629  0.81989624  0.30564141     0.11300
C1521       C  0.62725421  0.04960139  0.21039607    -0.03300
C1522       C  0.63573805  0.05377287  0.22643388    -0.05900
C1523       C  0.63525823  0.04204608  0.24072456    -0.20900
C1524       C  0.62655037  0.02580873  0.23922114     0.24800
C1525       C  0.61781304  0.02170692  0.22330813    -0.18500
C1526       C  0.61817192  0.03348832  0.20904435    -0.08500
C1527       C  0.62664594  0.01351485  0.25451514    -0.18800
C1528       C  0.62651942  0.99586328  0.25243639    -0.23600
C1529       C  0.62725618  0.98319435  0.26740935     0.26800
C1530       C  0.63399338  0.96622894  0.26424020    -0.20300
C1531       C  0.63427798  0.95357625  0.27768388    -0.10000
C1532       C  0.62760445  0.95752747  0.29462518    -0.10500
C1533       C  0.62094706  0.97459148  0.29786782    -0.03400
C1534       C  0.62075550  0.98731683  0.28438814    -0.18600
H1535       H  0.64275881  0.06611942  0.22799315     0.10500
H1536       H  0.64195174  0.04554308  0.25290648     0.10600
H1537       H  0.61051427  0.00951364  0.22191286     0.10300
H1538       H  0.61135161  0.02993762  0.19695815     0.11400
H1539       H  0.62811268  0.01914343  0.26766670     0.11500
H1540       H  0.62688565  0.99037421  0.23913599     0.13400
H1541       H  0.63902421  0.96272033  0.25126522     0.09900
H1542       H  0.63952531  0.94059447  0.27466806     0.12000
H1543       H  0.61564113  0.97805032  0.31073262     0.08600
H1544       H  0.61506927  0.00014743  0.28718320     0.11300
C1545       C  0.96127283  0.52219686  0.04594816    -0.03300
C1546       C  0.95168959  0.51013608  0.05628887    -0.05900
C1547       C  0.94152796  0.51601777  0.07057139    -0.20900
C1548       C  0.94054248  0.53407987  0.07480561     0.24800
C1549       C  0.94989271  0.54622544  0.06428616    -0.18500
C1550       C  0.96010784  0.54033039  0.05000148    -0.08500
C1551       C  0.93066820  0.53938098  0.09099673    -0.18800
C1552       C  0.92540208  0.55602369  0.09478435    -0.23600
C1553       C  0.91655752  0.56058879  0.11179857     0.26800
C1554       C  0.90483881  0.57500743  0.11264201    -0.20300
C1555       C  0.89617874  0.57923317  0.12855012    -0.10000
C1556       C  0.89916116  0.56908500  0.14386934    -0.10500
C1557       C  0.91135972  0.55508355  0.14309240    -0.03400
C1558       C  0.92002919  0.55097229  0.12735289    -0.18600
H1559       H  0.95227013  0.49609044  0.05355503     0.10500
H1560       H  0.93455916  0.50635036  0.07850218     0.10600
H1561       H  0.94984394  0.56019739  0.06730203     0.10300
H1562       H  0.96734260  0.54998459  0.04231317     0.11400
H1563       H  0.92735246  0.52882730  0.10016220     0.11500
H1564       H  0.92705056  0.56648169  0.08508731     0.13400
H1565       H  0.90214232  0.58279917  0.10089660     0.09900
H1566       H  0.88689124  0.59012107  0.12876199     0.12000
H1567       H  0.91429044  0.54723575  0.15474460     0.08600
H1568       H  0.92957391  0.54032584  0.12750951     0.11300
C1569       C  0.86598829  0.60800748  0.18569577    -0.03300
C1570       C  0.86297401  0.62165397  0.17338114    -0.05900
C1571       C  0.85418911  0.63719762  0.17858419    -0.20900
C1572       C  0.84818331  0.63926848  0.19609724     0.24800
C1573       C  0.85201260  0.62598733  0.20852556    -0.18500
C1574       C  0.86070703  0.61058937  0.20338808    -0.08500
C1575       C  0.83786890  0.65521014  0.20129186    -0.18800
C1576       C  0.82512052  0.65438080  0.21371575    -0.23600
C1577       C  0.81413622  0.66961624  0.21941584     0.26800
C1578       C  0.79728815  0.66620440  0.22620174    -0.20300
C1579       C  0.78654976  0.67998532  0.23215468    -0.10000
C1580       C  0.79251558  0.69755853  0.23174503    -0.10500
C1581       C  0.80956353  0.70098650  0.22526812    -0.03400
C1582       C  0.82026940  0.68714989  0.21910202    -0.18600
H1583       H  0.86698786  0.62014503  0.15969510     0.10500
H1584       H  0.85162254  0.64738430  0.16881549     0.10600
H1585       H  0.84828264  0.62743217  0.22229481     0.10300
H1586       H  0.86314343  0.60059546  0.21338322     0.11400
H1587       H  0.84009582  0.66745477  0.19412059     0.11500
H1588       H  0.82181617  0.64161433  0.21941025     0.13400
H1589       H  0.79233073  0.65279043  0.22675806     0.09900
H1590       H  0.77353682  0.67683659  0.23708845     0.12000
H1591       H  0.81458104  0.71437205  0.22482872     0.08600
H1592       H  0.83338699  0.69016524  0.21439839     0.11300
C1593       C  0.87825356  0.54618214  0.20078715    -0.03300
C1594       C  0.88210138  0.52878952  0.19545683    -0.05900
C1595       C  0.88084372  0.51481355  0.20749577    -0.20900
C1596       C  0.87600058  0.51794511  0.22515442     0.24800
C1597       C  0.87180074  0.53530004  0.23042286    -0.18500
C1598       C  0.87293885  0.54926092  0.21836058    -0.08500
C1599       C  0.87528992  0.50279810  0.23762878    -0.18800
C1600       C  0.87782251  0.50461476  0.25518977    -0.23600
C1601       C  0.87791206  0.48959029  0.26785854     0.26800
C1602       C  0.88608727  0.49194705  0.28435084    -0.20300
C1603       C  0.88623328  0.47837023  0.29688402    -0.10000
C1604       C  0.87805952  0.46210722  0.29326246    -0.10500
C1605       C  0.86983864  0.45972391  0.27673996    -0.03400
C1606       C  0.86969566  0.47333072  0.26418619    -0.18600
H1607       H  0.88604012  0.52594374  0.18195910     0.10500
H1608       H  0.88393221  0.50153750  0.20306778     0.10600
H1609       H  0.86742570  0.53815245  0.24376604     0.10300
H1610       H  0.86974947  0.56248647  0.22285492     0.11400
H1611       H  0.87383869  0.48971330  0.23194252     0.11500
H1612       H  0.88094998  0.51756605  0.26050709     0.13400
H1613       H  0.89241571  0.50436329  0.28756323     0.09900
H1614       H  0.89265577  0.48071081  0.30947740     0.12000
H1615       H  0.86329728  0.44742017  0.27356303     0.08600
H1616       H  0.86279786  0.47113006  0.25185102     0.11300
C1617       C  0.54111894  0.01673165  0.05665902    -0.03300
C1618       C  0.54897688  0.00456656  0.06833071    -0.05900
C1619       C  0.55953144  0.01044252  0.08235660    -0.20900
C1620       C  0.56263954  0.02857743  0.08500397     0.24800
C1621       C  0.55482281  0.04075883  0.07327468    -0.18500
C1622       C  0.54423658  0.03488793  0.05928443    -0.08500
C1623       C  0.57322119  0.03414062  0.10069686    -0.18800
C1624       C  0.58017315  0.05042356  0.10302015    -0.23600
C1625       C  0.58984945  0.05568288  0.11940167     0.26800
C1626       C  0.60195143  0.06973826  0.11881453    -0.20300
C1627       C  0.61126611  0.07484541  0.13406069    -0.10000
C1628       C  0.60858223  0.06600139  0.15022791    -0.10500
C1629       C  0.59606265  0.05232523  0.15085943    -0.03400
C1630       C  0.58676578  0.04730995  0.13573977    -0.18600
H1631       H  0.54681405  0.99050676  0.06676426     0.10500
H1632       H  0.56522678  0.00074260  0.09126100     0.10600
H1633       H  0.55642689  0.05484348  0.07501920     0.10300
H1634       H  0.53834999  0.04465067  0.05058922     0.11400
H1635       H  0.57563290  0.02407106  0.11066569     0.11500
H1636       H  0.57928118  0.06014020  0.09248097     0.13400
H1637       H  0.60438422  0.07662433  0.10646381     0.09900
H1638       H  0.62074436  0.08547534  0.13311811     0.12000
H1639       H  0.59334755  0.04541759  0.16313246     0.08600
H1640       H  0.57700704  0.03700601  0.13704439     0.11300
C1641       C  0.54942944  0.95461857  0.98207546    -0.03300
C1642       C  0.55942314  0.94436380  0.99392935    -0.05900
C1643       C  0.57370481  0.93432619  0.98789239    -0.20900
C1644       C  0.57833495  0.93415069  0.96986705     0.24800
C1645       C  0.56817120  0.94417618  0.95790193    -0.18500
C1646       C  0.55386979  0.95425673  0.96395418    -0.08500
C1647       C  0.59449948  0.92430209  0.96449315    -0.18800
C1648       C  0.59863759  0.91972743  0.94770414    -0.23600
C1649       C  0.61541092  0.91049073  0.94318220     0.26800
C1650       C  0.61617328  0.89927273  0.92835505    -0.20300
C1651       C  0.63173583  0.89012521  0.92416814    -0.10000
C1652       C  0.64690994  0.89216150  0.93467209    -0.10500
C1653       C  0.64625355  0.90390449  0.94911507    -0.03400
C1654       C  0.63077404  0.91299444  0.95326770    -0.18600
H1655       H  0.55641968  0.94432268  0.00795694     0.10500
H1656       H  0.58133386  0.92681602  0.99743352     0.10600
H1657       H  0.57147818  0.94475655  0.94398060     0.10300
H1658       H  0.54650550  0.96206217  0.95445115     0.11400
H1659       H  0.60328928  0.92029413  0.97512444     0.11500
H1660       H  0.58931234  0.92210066  0.93706641     0.13400
H1661       H  0.60459662  0.89731136  0.92020132     0.09900
H1662       H  0.63178418  0.88126501  0.91290194     0.12000
H1663       H  0.65772906  0.90607531  0.95734904     0.08600
H1664       H  0.63096930  0.92209431  0.96432319     0.11300
C1665       C  0.45816792  0.97695598  0.95392178    -0.03300
C1666       C  0.43998468  0.98032274  0.95506500    -0.05900
C1667       C  0.42859599  0.97486635  0.94155966    -0.20900
C1668       C  0.43502933  0.96548525  0.92687135     0.24800
C1669       C  0.45320486  0.96196199  0.92576311    -0.18500
C1670       C  0.46466800  0.96776700  0.93909410    -0.08500
C1671       C  0.42271902  0.96078599  0.91230588    -0.18800
C1672       C  0.42477043  0.94641258  0.90193388    -0.23600
C1673       C  0.41349101  0.94288057  0.88619267     0.26800
C1674       C  0.41115325  0.92542509  0.88023526    -0.20300
C1675       C  0.40204549  0.92195849  0.86442791    -0.10000
C1676       C  0.39548850  0.93595607  0.85408505    -0.10500
C1677       C  0.39747380  0.95336824  0.86029985    -0.03400
C1678       C  0.40630608  0.95679923  0.87615298    -0.18600
H1679       H  0.43459555  0.98745756  0.96627473     0.10500
H1680       H  0.41469105  0.97794683  0.94260255     0.10600
H1681       H  0.45865155  0.95516643  0.91438298     0.10300
H1682       H  0.47861017  0.96496423  0.93786215     0.11400
H1683       H  0.41139371  0.96936040  0.91030553     0.11500
H1684       H  0.43504812  0.93688537  0.90504486     0.13400
H1685       H  0.41668128  0.91447768  0.88766147     0.09900
H1686       H  0.40085027  0.90842484  0.85990680     0.12000
H1687       H  0.39257985  0.96445534  0.85263453     0.08600
H1688       H  0.40819321  0.97043480  0.88004278     0.11300
C1689       C  0.52774078  0.04605678  0.96564032    -0.03300
C1690       C  0.52965421  0.04412532  0.94720270    -0.05900
C1691       C  0.53742291  0.05752982  0.93705023    -0.20900
C1692       C  0.54341938  0.07315929  0.94506459     0.24800
C1693       C  0.54205869  0.07480444  0.96360369    -0.18500
C1694       C  0.53421067  0.06148163  0.97372051    -0.08500
C1695       C  0.55084543  0.08750107  0.93374523    -0.18800
C1696       C  0.55030736  0.10467344  0.93850417    -0.23600
C1697       C  0.55580643  0.11956647  0.92688299     0.26800
C1698       C  0.54804048  0.13614282  0.92979604    -0.20300
C1699       C  0.55228825  0.15056161  0.91912667    -0.10000
C1700       C  0.56471222  0.14891580  0.90541486    -0.10500
C1701       C  0.57301929  0.13248673  0.90278654    -0.03400
C1702       C  0.56852247  0.11786558  0.91336550    -0.18600
H1703       H  0.52494894  0.03234813  0.94057677     0.10500
H1704       H  0.53845471  0.05582120  0.92283524     0.10600
H1705       H  0.54714782  0.08628556  0.97042114     0.10300
H1706       H  0.53331531  0.06323768  0.98793604     0.11400
H1707       H  0.55550068  0.08395668  0.92061136     0.11500
H1708       H  0.54409040  0.10826705  0.95094751     0.13400
H1709       H  0.53835003  0.13789007  0.94019819     0.09900
H1710       H  0.54576644  0.16307222  0.92162557     0.12000
H1711       H  0.58264581  0.13085120  0.89232028     0.08600
H1712       H  0.57508433  0.10536686  0.91102644     0.11300
C1713       C  0.09930596  0.19378605  0.63724418    -0.03300
C1714       C  0.10225144  0.21173784  0.64112215    -0.05900
C1715       C  0.11686886  0.21700602  0.65094096    -0.20900
C1716       C  0.12915026  0.20458848  0.65709684     0.24800
C1717       C  0.12670443  0.18662399  0.65274455    -0.18500
C1718       C  0.11189641  0.18128113  0.64288021    -0.08500
C1719       C  0.14336310  0.21104771  0.66905856    -0.18800
C1720       C  0.15874554  0.20267205  0.67213093    -0.23600
C1721       C  0.17232832  0.21018598  0.68425229     0.26800
C1722       C  0.19025581  0.20730291  0.68072039    -0.20300
C1723       C  0.20324360  0.21457906  0.69171213    -0.10000
C1724       C  0.19857682  0.22460397  0.70672461    -0.10500
C1725       C  0.18061327  0.22710591  0.71049877    -0.03400
C1726       C  0.16765069  0.22003172  0.69938842    -0.18600
H1727       H  0.09301016  0.22183138  0.63691307     0.10500
H1728       H  0.11840630  0.23090899  0.65402776     0.10600
H1729       H  0.13576621  0.17662513  0.65749226     0.10300
H1730       H  0.11001142  0.16735066  0.64019559     0.11400
H1731       H  0.14123590  0.22388472  0.67516154     0.11500
H1732       H  0.16192377  0.19067450  0.66490498     0.13400
H1733       H  0.19422341  0.19962818  0.66927371     0.09900
H1734       H  0.21696015  0.21220801  0.68853708     0.12000
H1735       H  0.17655219  0.23460877  0.72202190     0.08600
H1736       H  0.15395871  0.22208212  0.70283931     0.11300
C1737       C  0.28847159  0.19760076  0.72730344    -0.03300
C1738       C  0.28819882  0.19336538  0.70912942    -0.05900
C1739       C  0.29944394  0.18043522  0.70222567    -0.20900
C1740       C  0.31143843  0.17154828  0.71320038     0.24800
C1741       C  0.31156607  0.17552139  0.73146227    -0.18500
C1742       C  0.30020025  0.18841991  0.73842091    -0.08500
C1743       C  0.32309308  0.15781993  0.70520962    -0.18800
C1744       C  0.33888719  0.15337485  0.71202756    -0.23600
C1745       C  0.35029740  0.13892867  0.70500293     0.26800
C1746       C  0.36266240  0.13138813  0.71655103    -0.20300
C1747       C  0.37296143  0.11706283  0.71122471    -0.10000
C1748       C  0.37140143  0.11001440  0.69406101    -0.10500
C1749       C  0.35974761  0.11809611  0.68206819    -0.03400
C1750       C  0.34919481  0.13240640  0.68750420    -0.18600
H1751       H  0.27928398  0.20007630  0.70015087     0.10500
H1752       H  0.29891036  0.17750724  0.68817891     0.10600
H1753       H  0.32018797  0.16852180  0.74048022     0.10300
H1754       H  0.30065836  0.19125196  0.75248096     0.11400
H1755       H  0.31844406  0.15136198  0.69326414     0.11500
H1756       H  0.34346346  0.16010136  0.72386465     0.13400
H1757       H  0.36398986  0.13624672  0.72999363     0.09900
H1758       H  0.38197730  0.11125567  0.72072661     0.12000
H1759       H  0.35831703  0.11294664  0.66875599     0.08600
H1760       H  0.34021404  0.13820645  0.67801096     0.11300
C1761       C  0.29666816  0.27202490  0.79178215    -0.03300
C1762       C  0.30079081  0.29014711  0.79103608    -0.05900
C1763       C  0.31403309  0.29728787  0.80171315    -0.20900
C1764       C  0.32359513  0.28662867  0.81354793     0.24800
C1765       C  0.31934976  0.26846194  0.81449915    -0.18500
C1766       C  0.30604807  0.26128478  0.80373940    -0.08500
C1767       C  0.33830531  0.29503503  0.82376758    -0.18800
C1768       C  0.34797790  0.28685294  0.83635143    -0.23600
C1769       C  0.36403551  0.29470325  0.84462638     0.26800
C1770       C  0.37709373  0.28312449  0.85082932    -0.20300
C1771       C  0.39291809  0.28956926  0.85764021    -0.10000
C1772       C  0.39610297  0.30786345  0.85875374    -0.10500
C1773       C  0.38270593  0.31958278  0.85338208    -0.03400
C1774       C  0.36683288  0.31307786  0.84630207    -0.18600
H1775       H  0.29389125  0.29889097  0.78201553     0.10500
H1776       H  0.31693792  0.31126137  0.80055819     0.10600
H1777       H  0.32635912  0.25955945  0.82319804     0.10300
H1778       H  0.30322892  0.24728508  0.80467326     0.11400
H1779       H  0.34177694  0.30846126  0.82009647     0.11500
H1780       H  0.34500370  0.27331949  0.83993343     0.13400
H1781       H  0.37527737  0.26894623  0.84990838     0.09900
H1782       H  0.40281368  0.28011111  0.86183072     0.12000
H1783       H  0.38469727  0.33373592  0.85414513     0.08600
H1784       H  0.35685985  0.32244415  0.84215387     0.11300
C1785       C  0.14271650  0.60867771  0.68561231    -0.03300
C1786       C  0.14157447  0.62352471  0.67441583    -0.05900
C1787       C  0.15102969  0.63898596  0.67834453    -0.20900
C1788       C  0.16191962  0.63982096  0.69339257     0.24800
C1789       C  0.16291573  0.62499599  0.70458557    -0.18500
C1790       C  0.15356480  0.60966779  0.70069543    -0.08500
C1791       C  0.17143216  0.65645331  0.69780818    -0.18800
C1792       C  0.18650478  0.65636308  0.70727678    -0.23600
C1793       C  0.19580999  0.67234154  0.71388959     0.26800
C1794       C  0.21302197  0.67021872  0.72032548    -0.20300
C1795       C  0.22205716  0.68438151  0.72786542    -0.10000
C1796       C  0.21407747  0.70111320  0.72927803    -0.10500
C1797       C  0.19683881  0.70334121  0.72278363    -0.03400
C1798       C  0.18776088  0.68909867  0.71518213    -0.18600
H1799       H  0.13327743  0.62326609  0.66275081     0.10500
H1800       H  0.14985547  0.65030641  0.66961792     0.10600
H1801       H  0.17054120  0.62528030  0.71669116     0.10300
H1802       H  0.15469406  0.59864108  0.70978838     0.11400
H1803       H  0.16595350  0.66883332  0.69303467     0.11500
H1804       H  0.19258970  0.64372937  0.71040830     0.13400
H1805       H  0.21950718  0.65745040  0.71965725     0.09900
H1806       H  0.23530886  0.68214769  0.73268765     0.12000
H1807       H  0.19030930  0.71606167  0.72367940     0.08600
H1808       H  0.17437419  0.69121289  0.71077896     0.11300
C1809       C  0.04360824  0.47606529  0.94622786    -0.03300
C1810       C  0.06045576  0.46944666  0.95030894    -0.05900
C1811       C  0.07064270  0.46107677  0.93730319    -0.20900
C1812       C  0.06418151  0.45898646  0.92000160     0.24800
C1813       C  0.04744786  0.46591825  0.91584754    -0.18500
C1814       C  0.03728564  0.47427185  0.92881827    -0.08500
C1815       C  0.07565834  0.45059932  0.90638491    -0.18800
C1816       C  0.06944334  0.44369168  0.89117822    -0.23600
C1817       C  0.08106894  0.43866087  0.87624086     0.26800
C1818       C  0.07535056  0.44245752  0.85899713    -0.20300
C1819       C  0.08661018  0.44001270  0.84460795    -0.10000
C1820       C  0.10362210  0.43317365  0.84712030    -0.10500
C1821       C  0.10898780  0.42817165  0.86421183    -0.03400
C1822       C  0.09783749  0.43106653  0.87874727    -0.18600
H1823       H  0.06572932  0.47059413  0.96359251     0.10500
H1824       H  0.08358328  0.45611728  0.94079732     0.10600
H1825       H  0.04221001  0.46530818  0.90254272     0.10300
H1826       H  0.02442017  0.47930725  0.92517283     0.11400
H1827       H  0.08977756  0.45083021  0.90868574     0.11500
H1828       H  0.05537617  0.44338051  0.88872278     0.13400
H1829       H  0.06243997  0.44817045  0.85674421     0.09900
H1830       H  0.08216726  0.44384996  0.83151005     0.12000
H1831       H  0.12207393  0.42287654  0.86641677     0.08600
H1832       H  0.10241529  0.42763080  0.89189540     0.11300
C1833       C  0.15037241  0.40447944  0.81126303    -0.03300
C1834       C  0.16467355  0.40691902  0.79970533    -0.05900
C1835       C  0.17494085  0.39260918  0.79429006    -0.20900
C1836       C  0.17114021  0.37542513  0.80010353     0.24800
C1837       C  0.15722242  0.37297713  0.81222820    -0.18500
C1838       C  0.14695322  0.38740947  0.81777232    -0.08500
C1839       C  0.18221040  0.36070922  0.79315501    -0.18800
C1840       C  0.17756557  0.34351072  0.79337227    -0.23600
C1841       C  0.18855007  0.32915402  0.78543452     0.26800
C1842       C  0.18073777  0.31270221  0.78191538    -0.20300
C1843       C  0.19058521  0.29882716  0.77458814    -0.10000
C1844       C  0.20853679  0.30108702  0.77062094    -0.10500
C1845       C  0.21637055  0.31752233  0.77417255    -0.03400
C1846       C  0.20658214  0.33132680  0.78159460    -0.18600
H1847       H  0.16783040  0.41991814  0.79459727     0.10500
H1848       H  0.18570854  0.39495959  0.78516806     0.10600
H1849       H  0.15418756  0.36003495  0.81747419     0.10300
H1850       H  0.13607011  0.38513126  0.82675689     0.11400
H1851       H  0.19425753  0.36456922  0.78651250     0.11500
H1852       H  0.16485165  0.33977637  0.79874227     0.13400
H1853       H  0.16693458  0.31056308  0.78484451     0.09900
H1854       H  0.18415599  0.28629833  0.77214965     0.12000
H1855       H  0.23022291  0.31966190  0.77152239     0.08600
H1856       H  0.21342454  0.34346168  0.78460016     0.11300
C1857       C  0.12780816  0.46307403  0.79494482    -0.03300
C1858       C  0.11804460  0.47842699  0.79881939    -0.05900
C1859       C  0.11825424  0.49286389  0.78723632    -0.20900
C1860       C  0.12796021  0.49213560  0.77144153     0.24800
C1861       C  0.13790992  0.47689639  0.76765890    -0.18500
C1862       C  0.13783515  0.46253814  0.77928885    -0.08500
C1863       C  0.12769986  0.50752319  0.75927815    -0.18800
C1864       C  0.12909323  0.50572019  0.74160112    -0.23600
C1865       C  0.12805162  0.52085971  0.72920383     0.26800
C1866       C  0.12094660  0.51811383  0.71229295    -0.20300
C1867       C  0.11964621  0.53205763  0.70024024    -0.10000
C1868       C  0.12578320  0.54899113  0.70473600    -0.10500
C1869       C  0.13330863  0.55165598  0.72154654    -0.03400
C1870       C  0.13436631  0.53773488  0.73371464    -0.18600
H1871       H  0.11027604  0.47933038  0.81082086     0.10500
H1872       H  0.11060854  0.50453808  0.79048795     0.10600
H1873       H  0.14595501  0.47611357  0.75584403     0.10300
H1874       H  0.14560859  0.45098419  0.77594490     0.11400
H1875       H  0.12511297  0.52048652  0.76492173     0.11500
H1876       H  0.12978013  0.49256224  0.73586471     0.13400
H1877       H  0.11616376  0.50517500  0.70847988     0.09900
H1878       H  0.11393565  0.52952365  0.68734090     0.12000
H1879       H  0.13823698  0.56453060  0.72536451     0.08600
H1880       H  0.14035237  0.54013629  0.74650431     0.11300
C1881       C  0.22057551  0.21119825  0.79954598    -0.03300
C1882       C  0.20413847  0.21657627  0.80628926    -0.05900
C1883       C  0.19660143  0.20785631  0.82071586    -0.20900
C1884       C  0.20504468  0.19326425  0.82840032     0.24800
C1885       C  0.22126757  0.18751891  0.82143976    -0.18500
C1886       C  0.22905209  0.19652859  0.80722352    -0.08500
C1887       C  0.19740669  0.18531726  0.84459098    -0.18800
C1888       C  0.19792582  0.16788625  0.84804631    -0.23600
C1889       C  0.19125940  0.16051793  0.86497072     0.26800
C1890       C  0.18286587  0.14399922  0.86519950    -0.20300
C1891       C  0.17744888  0.13645000  0.88126441    -0.10000
C1892       C  0.18087262  0.14508480  0.89737404    -0.10500
C1893       C  0.18914058  0.16167843  0.89709110    -0.03400
C1894       C  0.19415796  0.16938435  0.88106398    -0.18600
H1895       H  0.19730317  0.22788045  0.80073275     0.10500
H1896       H  0.18417309  0.21258597  0.82597363     0.10600
H1897       H  0.22821996  0.17649245  0.82738406     0.10300
H1898       H  0.24171302  0.19209277  0.80230458     0.11400
H1899       H  0.19067070  0.19411391  0.85376139     0.11500
H1900       H  0.20301842  0.15879667  0.83813195     0.13400
H1901       H  0.18062797  0.13689124  0.85294811     0.09900
H1902       H  0.17130521  0.12354182  0.88115268     0.12000
H1903       H  0.19201834  0.16857083  0.90933339     0.08600
H1904       H  0.20092876  0.18196667  0.88133337     0.11300
C1905       C  0.45211161  0.03946622  0.02970354    -0.03300
C1906       C  0.45555750  0.05722632  0.03399512    -0.05900
C1907       C  0.44221513  0.06805581  0.04093655    -0.20900
C1908       C  0.42516235  0.06140799  0.04361523     0.24800
C1909       C  0.42190662  0.04348952  0.03986314    -0.18500
C1910       C  0.43516827  0.03271659  0.03290960    -0.08500
C1911       C  0.41098768  0.07341368  0.05013802    -0.18800
C1912       C  0.39394463  0.07095882  0.04584636    -0.23600
C1913       C  0.37943664  0.08327581  0.05062755     0.26800
C1914       C  0.36453904  0.08360987  0.03968755    -0.20300
C1915       C  0.35041198  0.09477957  0.04344570    -0.10000
C1916       C  0.35062996  0.10577477  0.05847208    -0.10500
C1917       C  0.36541037  0.10524916  0.06971339    -0.03400
C1918       C  0.37975802  0.09414393  0.06578562    -0.18600
H1919       H  0.46850766  0.06279962  0.03185517     0.10500
H1920       H  0.44512701  0.08175612  0.04389224     0.10600
H1921       H  0.40915685  0.03765480  0.04239429     0.10300
H1922       H  0.43211191  0.01902290  0.03009238     0.11400
H1923       H  0.41482532  0.08519633  0.05737500     0.11500
H1924       H  0.39050172  0.06009368  0.03711849     0.13400
H1925       H  0.36387863  0.07527983  0.02802390     0.09900
H1926       H  0.33921852  0.09466594  0.03455279     0.12000
H1927       H  0.36594222  0.11349537  0.08142978     0.08600
H1928       H  0.39088949  0.09389172  0.07473511     0.11300
C1929       C  0.20017304  0.13260646  0.95808991    -0.03300
C1930       C  0.19715490  0.12540479  0.97499963    -0.05900
C1931       C  0.20985825  0.12689087  0.98831554    -0.20900
C1932       C  0.22593401  0.13536220  0.98497116     0.24800
C1933       C  0.22880284  0.14296273  0.96820309    -0.18500
C1934       C  0.21605276  0.14159383  0.95492007    -0.08500
C1935       C  0.23931108  0.13610985  0.99929391    -0.18800
C1936       C  0.25673737  0.13707177  0.99611221    -0.23600
C1937       C  0.27015479  0.13636374  0.01039143     0.26800
C1938       C  0.28683044  0.12932352  0.00654782    -0.20300
C1939       C  0.29956646  0.12769621  0.01982079    -0.10000
C1940       C  0.29596889  0.13335032  0.03719707    -0.10500
C1941       C  0.27948987  0.14105649  0.04087826    -0.03400
C1942       C  0.26670276  0.14253758  0.02762880    -0.18600
H1943       H  0.18501617  0.11851489  0.97794183     0.10500
H1944       H  0.20725703  0.12109211  0.00118297     0.10600
H1945       H  0.24079720  0.15009250  0.96531263     0.10300
H1946       H  0.21876436  0.14739482  0.94208606     0.11400
H1947       H  0.23469278  0.13443185  0.01280944     0.11500
H1948       H  0.26147279  0.13691290  0.98253658     0.13400
H1949       H  0.28987761  0.12468130  0.99331204     0.09900
H1950       H  0.31218420  0.12188168  0.01647905     0.12000
H1951       H  0.27633787  0.14570821  0.05407836     0.08600
H1952       H  0.25419324  0.14858589  0.03091718     0.11300
C1953       C  0.45706678  0.52009639  0.45197117    -0.03300
C1954       C  0.44761535  0.50813006  0.44141137    -0.05900
C1955       C  0.43761832  0.51415898  0.42701812    -0.20900
C1956       C  0.43681733  0.53226271  0.42276512     0.24800
C1957       C  0.44595417  0.54427986  0.43363547    -0.18500
C1958       C  0.45594574  0.53824810  0.44800376    -0.08500
C1959       C  0.42668832  0.53773884  0.40668277    -0.18800
C1960       C  0.42649345  0.55422382  0.39972713    -0.23600
C1961       C  0.41756536  0.55874337  0.38270898     0.26800
C1962       C  0.41272205  0.57638986  0.37929362    -0.20300
C1963       C  0.40508823  0.58120723  0.36304781    -0.10000
C1964       C  0.40240907  0.56848162  0.34976034    -0.10500
C1965       C  0.40728786  0.55084373  0.35321554    -0.03400
C1966       C  0.41478522  0.54603642  0.36940970    -0.18600
H1967       H  0.44810373  0.49407290  0.44412086     0.10500
H1968       H  0.43068644  0.50455863  0.41898607     0.10600
H1969       H  0.44560576  0.55834450  0.43122803     0.10300
H1970       H  0.46292680  0.54787533  0.45594929     0.11400
H1971       H  0.41929653  0.52741468  0.40006035     0.11500
H1972       H  0.43313569  0.56494998  0.40644047     0.13400
H1973       H  0.41493271  0.58650087  0.38920745     0.09900
H1974       H  0.40164885  0.59492494  0.36076110     0.12000
H1975       H  0.40550726  0.54066777  0.34328506     0.08600
H1976       H  0.41886819  0.53243846  0.37115007     0.11300
C1977       C  0.65711952  0.40031406  0.68005212    -0.03300
C1978       C  0.67395887  0.40227486  0.68748292    -0.05900
C1979       C  0.68387915  0.38750377  0.69233797    -0.20900
C1980       C  0.67703026  0.37043378  0.69033512     0.24800
C1981       C  0.66037068  0.36834922  0.68238890    -0.18500
C1982       C  0.65054686  0.38321438  0.67713692    -0.08500
C1983       C  0.68774164  0.35530986  0.69682103    -0.18800
C1984       C  0.68071565  0.34054859  0.70387661    -0.23600
C1985       C  0.69144043  0.32618501  0.71212297     0.26800
C1986       C  0.68382335  0.30944247  0.71446403    -0.20300
C1987       C  0.69338246  0.29562764  0.72227093    -0.10000
C1988       C  0.71077768  0.29828925  0.72806149    -0.10500
C1989       C  0.71828742  0.31514043  0.72605806    -0.03400
C1990       C  0.70874033  0.32893583  0.71827973    -0.18600
H1991       H  0.67936657  0.41531670  0.68980211     0.10500
H1992       H  0.69672768  0.38945032  0.69825861     0.10600
H1993       H  0.65492036  0.35531020  0.68026206     0.10300
H1994       H  0.63757030  0.38138082  0.67148609     0.11400
H1995       H  0.70189833  0.35707000  0.69674077     0.11500
H1996       H  0.66650959  0.33896336  0.70387831     0.13400
H1997       H  0.67046641  0.30699271  0.71009096     0.09900
H1998       H  0.68716266  0.28282866  0.72366541     0.12000
H1999       H  0.73159292  0.31771288  0.73051144     0.08600
H2000       H  0.71496213  0.34174596  0.71745504     0.11300
C2001       C  0.53490039  0.47580828  0.55665807    -0.03300
C2002       C  0.52770434  0.47489990  0.57379707    -0.05900
C2003       C  0.53746367  0.46784900  0.58783442    -0.20900
C2004       C  0.55459863  0.46136093  0.58514806     0.24800
C2005       C  0.56179009  0.46204484  0.56795778    -0.18500
C2006       C  0.55201768  0.46916993  0.55387663    -0.08500
C2007       C  0.56484665  0.45538806  0.60089406    -0.18800
C2008       C  0.57960178  0.44540055  0.60027448    -0.23600
C2009       C  0.59034961  0.44145984  0.61635428     0.26800
C2010       C  0.60126343  0.42640006  0.61683273    -0.20300
C2011       C  0.61213263  0.42301547  0.63153817    -0.10000
C2012       C  0.61243585  0.43479218  0.64596009    -0.10500
C2013       C  0.60143533  0.44979659  0.64540642    -0.03400
C2014       C  0.59065208  0.45313328  0.63083609    -0.18600
H2015       H  0.51455137  0.47979202  0.57643993     0.10500
H2016       H  0.53162106  0.46761475  0.60094014     0.10600
H2017       H  0.57508088  0.45758592  0.56537666     0.10300
H2018       H  0.55794929  0.46961974  0.54082796     0.11400
H2019       H  0.55977269  0.45942219  0.61373235     0.11500
H2020       H  0.58394150  0.43981890  0.58776015     0.13400
H2021       H  0.60144285  0.41728609  0.60575847     0.09900
H2022       H  0.62050392  0.41140485  0.63145993     0.12000
H2023       H  0.60132149  0.45927964  0.65615874     0.08600
H2024       H  0.58300826  0.46521922  0.63079617     0.11300
C2025       C  0.70938831  0.70206236  0.77254897    -0.03300
C2026       C  0.70697438  0.70038456  0.79096587    -0.05900
C2027       C  0.69557403  0.68764177  0.79789740    -0.20900
C2028       C  0.68613861  0.67633992  0.78665866     0.24800
C2029       C  0.68849717  0.67798909  0.76819458    -0.18500
C2030       C  0.69995967  0.69074081  0.76123964    -0.08500
C2031       C  0.67493786  0.66232127  0.79475368    -0.18800
C2032       C  0.66133913  0.65461017  0.78630366    -0.23600
C2033       C  0.65137383  0.63917473  0.79339214     0.26800
C2034       C  0.64254036  0.62836967  0.78122242    -0.20300
C2035       C  0.63434486  0.61283137  0.78674395    -0.10000
C2036       C  0.63447486  0.60778191  0.80467721    -0.10500
C2037       C  0.64231535  0.61909066  0.81712978    -0.03400
C2038       C  0.65078188  0.63463981  0.81154173    -0.18600
H2039       H  0.71397659  0.70887936  0.80009985     0.10500
H2040       H  0.69414299  0.68658649  0.81214507     0.10600
H2041       H  0.68193577  0.66917570  0.75906367     0.10300
H2042       H  0.70158401  0.69158880  0.74700533     0.11400
H2043       H  0.67834336  0.65811166  0.80806263     0.11500
H2044       H  0.65792979  0.65905455  0.77306063     0.13400
H2045       H  0.64252808  0.63161118  0.76723275     0.09900
H2046       H  0.62817254  0.60452844  0.77684442     0.12000
H2047       H  0.64251554  0.61556691  0.83104004     0.08600
H2048       H  0.65692408  0.64290702  0.82144474     0.11300
C2049       C  0.60490046  0.56604544  0.84659069    -0.03300
C2050       C  0.60334454  0.57844690  0.86038713    -0.05900
C2051       C  0.59461216  0.57397316  0.87619831    -0.20900
C2052       C  0.58735365  0.55702162  0.87860711     0.24800
C2053       C  0.58882188  0.54473738  0.86470110    -0.18500
C2054       C  0.59753726  0.54914477  0.84905198    -0.08500
C2055       C  0.57750611  0.55281947  0.89524309    -0.18800
C2056       C  0.57453229  0.53609393  0.90085923    -0.23600
C2057       C  0.56350916  0.53099387  0.91645455     0.26800
C2058       C  0.56280018  0.51301838  0.92118831    -0.20300
C2059       C  0.55203591  0.50722050  0.93506266    -0.10000
C2060       C  0.54164648  0.51927528  0.94464891    -0.10500
C2061       C  0.54244549  0.53730978  0.94007964    -0.03400
C2062       C  0.55317794  0.54311738  0.92612991    -0.18600
H2063       H  0.60876753  0.59159384  0.85894586     0.10500
H2064       H  0.59349603  0.58380283  0.88658199     0.10600
H2065       H  0.58286452  0.53180175  0.86552491     0.10300
H2066       H  0.59822473  0.53922717  0.83872334     0.11400
H2067       H  0.57276339  0.56392599  0.90297193     0.11500
H2068       H  0.58054358  0.52524185  0.89364478     0.13400
H2069       H  0.57050917  0.50331599  0.91398191     0.09900
H2070       H  0.55179810  0.49325263  0.93820604     0.12000
H2071       H  0.53458251  0.54697162  0.94715595     0.08600
H2072       H  0.55301344  0.55702782  0.92291009     0.11300
C2073       C  0.62348120  0.54643040  0.78760208    -0.03300
C2074       C  0.61117887  0.53259717  0.78771961    -0.05900
C2075       C  0.61172931  0.51948655  0.77471195    -0.20900
C2076       C  0.62485366  0.51967591  0.76164999     0.24800
C2077       C  0.63729289  0.53341576  0.76158928    -0.18500
C2078       C  0.63652443  0.54675153  0.77439604    -0.08500
C2079       C  0.62467092  0.50586407  0.74778218    -0.18800
C2080       C  0.63939937  0.49955123  0.74014753    -0.23600
C2081       C  0.63882915  0.48562713  0.72637928     0.26800
C2082       C  0.65234295  0.47298001  0.72556000    -0.20300
C2083       C  0.65185288  0.45951365  0.71286678    -0.10000
C2084       C  0.63799982  0.45871188  0.70052176    -0.10500
C2085       C  0.62473730  0.47170245  0.70108161    -0.03400
C2086       C  0.62511522  0.48498683  0.71389690    -0.18600
H2087       H  0.60089663  0.53210798  0.79765659     0.10500
H2088       H  0.60192193  0.50910662  0.77489118     0.10600
H2089       H  0.64732292  0.53412065  0.75141937     0.10300
H2090       H  0.64616126  0.55728039  0.77400567     0.11400
H2091       H  0.61202809  0.50005043  0.74443402     0.11500
H2092       H  0.65220485  0.50393927  0.74479476     0.13400
H2093       H  0.66312119  0.47334467  0.73496023     0.09900
H2094       H  0.66233552  0.44977581  0.71269619     0.12000
H2095       H  0.61391985  0.47151954  0.69172926     0.08600
H2096       H  0.61476335  0.49485979  0.71389401     0.11300
C2097       C  0.52243272  0.44729758  0.46690838    -0.03300
C2098       C  0.53927304  0.44093107  0.47145913     0.00500
C2099       C  0.54649781  0.42624181  0.46285085    -0.20900
C2100       C  0.53736256  0.41786207  0.44909910     0.24800
C2101       C  0.52069982  0.42438644  0.44414812    -0.18500
C2102       C  0.51321476  0.43887075  0.45311149    -0.08500
C2103       C  0.54487721  0.40146642  0.44129587    -0.18800
C2104       C  0.54476373  0.39790931  0.42380358    -0.23600
C2105       C  0.55199015  0.38108619  0.41648926     0.26800
C2106       C  0.56040168  0.38088733  0.39987074    -0.20300
C2107       C  0.56637476  0.36491217  0.39242967    -0.10000
C2108       C  0.56351001  0.34883658  0.40127746    -0.10500
C2109       C  0.55523837  0.34910177  0.41794370    -0.03400
C2110       C  0.54968140  0.36501369  0.42553114    -0.18600
H2111       H  0.54672127  0.44701434  0.48205915     0.10500
H2112       H  0.55927653  0.42134833  0.46699389     0.10600
H2113       H  0.51323693  0.41791878  0.43379259     0.10300
H2114       H  0.50021842  0.44342461  0.44930941     0.11400
H2115       H  0.55155009  0.39241055  0.45025954     0.11500
H2116       H  0.53973670  0.40776553  0.41460874     0.13400
H2117       H  0.56222022  0.39309432  0.39259281     0.09900
H2118       H  0.57248051  0.36502837  0.37945922     0.12000
H2119       H  0.55275704  0.33687501  0.42499541     0.08600
H2120       H  0.54293938  0.36462850  0.43816925     0.11300
C2121       C  0.54416102  0.28837163  0.38875585    -0.03300
C2122       C  0.54857680  0.27070489  0.38495633    -0.05900
C2123       C  0.53574282  0.25753792  0.38539687    -0.20900
C2124       C  0.51819417  0.26178590  0.38929844     0.24800
C2125       C  0.51380009  0.27936166  0.39354185    -0.18500
C2126       C  0.52669378  0.29252264  0.39332705    -0.08500
C2127       C  0.50487069  0.24754016  0.38902666    -0.18800
C2128       C  0.48797786  0.25038057  0.38443193    -0.23600
C2129       C  0.47486946  0.23594152  0.38331781     0.26800
C2130       C  0.46072928  0.23758226  0.37146822    -0.20300
C2131       C  0.44827573  0.22409081  0.36992752    -0.10000
C2132       C  0.44963929  0.20874043  0.38037587    -0.10500
C2133       C  0.46359988  0.20731465  0.39253908    -0.03400
C2134       C  0.47605639  0.22077021  0.39402900    -0.18600
H2135       H  0.56195504  0.26703884  0.38156127     0.10500
H2136       H  0.53946013  0.24404364  0.38229553     0.10600
H2137       H  0.50046270  0.28294941  0.39713287     0.10300
H2138       H  0.52290903  0.30599235  0.39641264     0.11400
H2139       H  0.50945987  0.23413058  0.39139507     0.11500
H2140       H  0.48386035  0.26349582  0.38022427     0.13400
H2141       H  0.45945657  0.24923323  0.36319717     0.09900
H2142       H  0.43764020  0.22567524  0.36049530     0.12000
H2143       H  0.46493524  0.19579058  0.40096293     0.08600
H2144       H  0.48644417  0.21933419  0.40374232     0.11300
C2145       C  0.27590833  0.28638913  0.69917441    -0.03300
C2146       C  0.28090068  0.30409135  0.70189773    -0.05900
C2147       C  0.28954830  0.31356046  0.68852152    -0.20900
C2148       C  0.29327020  0.30558215  0.67214627     0.24800
C2149       C  0.28875203  0.28771429  0.66965488    -0.18500
C2150       C  0.28008110  0.27829718  0.68294495    -0.08500
C2151       C  0.30152565  0.31618131  0.65774744    -0.18800
C2152       C  0.29794243  0.31298389  0.64058076    -0.23600
C2153       C  0.30428787  0.32382088  0.62547962     0.26800
C2154       C  0.29426069  0.32353900  0.60993557    -0.20300
C2155       C  0.29959660  0.33288176  0.59501097    -0.10000
C2156       C  0.31532677  0.34270234  0.59502836    -0.10500
C2157       C  0.32553800  0.34298961  0.61060425    -0.03400
C2158       C  0.32003234  0.33365570  0.62576678    -0.18600
H2159       H  0.27805685  0.31066078  0.71432733     0.10500
H2160       H  0.29302748  0.32724781  0.69083844     0.10600
H2161       H  0.29200571  0.28088332  0.65748449     0.10300
H2162       H  0.27677838  0.26458589  0.68052372     0.11400
H2163       H  0.30939576  0.32758950  0.66136432     0.11500
H2164       H  0.28862974  0.30259935  0.63734300     0.13400
H2165       H  0.28213424  0.31603387  0.60931153     0.09900
H2166       H  0.29132674  0.33219511  0.58334451     0.12000
H2167       H  0.33775318  0.35032967  0.61104891     0.08600
H2168       H  0.32825633  0.33384829  0.63747621     0.11300
C2169       C  0.44667822  0.45948447  0.52874079    -0.03300
C2170       C  0.44231237  0.46016776  0.54687976    -0.05900
C2171       C  0.42941495  0.44898013  0.55394627    -0.20900
C2172       C  0.42070627  0.43670149  0.54314197     0.24800
C2173       C  0.42476885  0.43631175  0.52490903    -0.18500
C2174       C  0.43763052  0.44751098  0.51783578    -0.08500
C2175       C  0.40698673  0.42500148  0.55105328    -0.18800
C2176       C  0.40280069  0.40918106  0.54403256    -0.23600
C2177       C  0.38774807  0.39803595  0.54985990     0.26800
C2178       C  0.38028911  0.38670131  0.53726408    -0.20300
C2179       C  0.36550508  0.37664579  0.54135646    -0.10000
C2180       C  0.35791101  0.37735015  0.55830859    -0.10500
C2181       C  0.36582177  0.38796795  0.57134386    -0.03400
C2182       C  0.38058936  0.39838205  0.56711922    -0.18600
H2183       H  0.44892393  0.46930352  0.55567923     0.10500
H2184       H  0.42637834  0.44977519  0.56795544     0.10600
H2185       H  0.41785465  0.42760409  0.51594377     0.10300
H2186       H  0.44048605  0.44676662  0.50379263     0.11400
H2187       H  0.40009848  0.42970383  0.56275200     0.11500
H2188       H  0.41005315  0.40452123  0.53254361     0.13400
H2189       H  0.38558361  0.38604329  0.52394109     0.09900
H2190       H  0.35976206  0.36850704  0.53106463     0.12000
H2191       H  0.36017507  0.38876924  0.58450158     0.08600
H2192       H  0.38627255  0.40667060  0.57729105     0.11300
C2193       C  0.30078936  0.35993288  0.53413025    -0.03300
C2194       C  0.30539051  0.36730213  0.51765863    -0.05900
C2195       C  0.29311694  0.36807775  0.50387658    -0.20900
C2196       C  0.27594767  0.36174203  0.50632801     0.24800
C2197       C  0.27147429  0.35387288  0.52259775    -0.18500
C2198       C  0.28376608  0.35298802  0.53634552    -0.08500
C2199       C  0.26307758  0.36339720  0.49163771    -0.18800
C2200       C  0.24565752  0.36530872  0.49442864    -0.23600
C2201       C  0.23271876  0.36775027  0.47989325     0.26800
C2202       C  0.21688520  0.37667050  0.48346857    -0.20300
C2203       C  0.20436411  0.37924312  0.47012258    -0.10000
C2204       C  0.20734525  0.37274160  0.45292939    -0.10500
C2205       C  0.22308883  0.36351471  0.44945139    -0.03400
C2206       C  0.23562634  0.36102088  0.46277304    -0.18600
H2207       H  0.31843007  0.37262819  0.51543424     0.10500
H2208       H  0.29692989  0.37399698  0.49137873     0.10600
H2209       H  0.25853557  0.34829214  0.52472233     0.10300
H2210       H  0.27983322  0.34702707  0.54877750     0.11400
H2211       H  0.26827634  0.36432808  0.47826739     0.11500
H2212       H  0.24074422  0.36621433  0.50791585     0.13400
H2213       H  0.21427356  0.38183473  0.49660256     0.09900
H2214       H  0.19236155  0.38632839  0.47329685     0.12000
H2215       H  0.22577253  0.35818259  0.43640753     0.08600
H2216       H  0.24741657  0.35358107  0.45966270     0.11300
C2217       C  0.34624276  0.90304294  0.43478834    -0.03300
C2218       C  0.36159915  0.89844004  0.42542897    -0.05900
C2219       C  0.37767296  0.90682018  0.42926114    -0.20900
C2220       C  0.37869836  0.91979031  0.44259230     0.24800
C2221       C  0.36317872  0.92486596  0.45135061    -0.18500
C2222       C  0.34725381  0.91659365  0.44755142    -0.08500
C2223       C  0.39588442  0.92821336  0.44695629    -0.18800
C2224       C  0.39949309  0.93454228  0.46330034    -0.23600
C2225       C  0.41597818  0.94393017  0.46829177     0.26800
C2226       C  0.42022972  0.94545132  0.48635000    -0.20300
C2227       C  0.43501482  0.95500623  0.49181544    -0.10000
C2228       C  0.44587053  0.96342206  0.47932694    -0.10500
C2229       C  0.44164045  0.96189106  0.46122497    -0.03400
C2230       C  0.42685794  0.95228989  0.45575546    -0.18600
H2231       H  0.36127795  0.88815597  0.41545728     0.10500
H2232       H  0.38940303  0.90289144  0.42208723     0.10600
H2233       H  0.36321615  0.93535104  0.46110539     0.10300
H2234       H  0.33568896  0.92083025  0.45481650     0.11400
H2235       H  0.40586122  0.92862246  0.43667303     0.11500
H2236       H  0.39000045  0.93242818  0.47385117     0.13400
H2237       H  0.41199780  0.93929497  0.49631395     0.09900
H2238       H  0.43782726  0.95593723  0.50585465     0.12000
H2239       H  0.44963081  0.96832129  0.45124717     0.08600
H2240       H  0.42378859  0.95188296  0.44176815     0.11300
C2241       C  0.46348989  0.02951735  0.55091358    -0.03300
C2242       C  0.46945438  0.04544349  0.55838850    -0.05900
C2243       C  0.46104322  0.05272514  0.57318102    -0.20900
C2244       C  0.44614970  0.04460100  0.58051087     0.24800
C2245       C  0.43974648  0.02898794  0.57273975    -0.18500
C2246       C  0.44846219  0.02141019  0.55817955    -0.08500
C2247       C  0.43879093  0.05165513  0.59731119    -0.18800
C2248       C  0.42145251  0.05227285  0.60103627    -0.23600
C2249       C  0.41494794  0.05844491  0.61857287     0.26800
C2250       C  0.39983821  0.06916205  0.61982864    -0.20300
C2251       C  0.39360454  0.07479377  0.63644675    -0.10000
C2252       C  0.40207870  0.06928538  0.65207578    -0.10500
C2253       C  0.41706586  0.05839435  0.65072143    -0.03400
C2254       C  0.42349108  0.05315343  0.63420438    -0.18600
H2255       H  0.48101075  0.05199361  0.55316001     0.10500
H2256       H  0.46629857  0.06467114  0.57905318     0.10600
H2257       H  0.42847157  0.02227131  0.57835768     0.10300
H2258       H  0.44353541  0.00915289  0.55268986     0.11400
H2259       H  0.44808219  0.05703047  0.60684029     0.11500
H2260       H  0.41191059  0.04862312  0.59096131     0.13400
H2261       H  0.39296065  0.07328154  0.60794259     0.09900
H2262       H  0.38193838  0.08303742  0.63710194     0.12000
H2263       H  0.42388702  0.05388919  0.66250320     0.08600
H2264       H  0.43494349  0.04460023  0.63367956     0.11300
C2265       C  0.53743545  0.97306555  0.44835339    -0.03300
C2266       C  0.52952095  0.96795959  0.43229901    -0.05900
C2267       C  0.53949344  0.96000175  0.41885824    -0.20900
C2268       C  0.55766489  0.95725222  0.42096192     0.24800
C2269       C  0.56559870  0.96215379  0.43707973    -0.18500
C2270       C  0.55557709  0.96990193  0.45063594    -0.08500
C2271       C  0.56788467  0.94924302  0.40611439    -0.18800
C2272       C  0.58478246  0.95345041  0.40270236    -0.23600
C2273       C  0.59417721  0.94750497  0.38645574     0.26800
C2274       C  0.60561744  0.95934720  0.37801698    -0.20300
C2275       C  0.61393280  0.95472680  0.36215437    -0.10000
C2276       C  0.61146351  0.93791502  0.35465377    -0.10500
C2277       C  0.60067751  0.92568456  0.36350176    -0.03400
C2278       C  0.59192250  0.93050604  0.37918610    -0.18600
H2279       H  0.51556749  0.97002473  0.43013572     0.10500
H2280       H  0.53303087  0.95624633  0.40662908     0.10600
H2281       H  0.57949054  0.95982792  0.43933073     0.10300
H2282       H  0.56207740  0.97351215  0.46288146     0.11400
H2283       H  0.56080408  0.94099247  0.39673834     0.11500
H2284       H  0.59133043  0.96316810  0.41098188     0.13400
H2285       H  0.60768704  0.97244974  0.38342406     0.09900
H2286       H  0.62226861  0.96436705  0.35567083     0.12000
H2287       H  0.59854943  0.91264858  0.35797211     0.08600
H2288       H  0.58343398  0.92097656  0.38561143     0.11300
C2289       C  0.42895479  0.15028668  0.39854296    -0.03300
C2290       C  0.43675707  0.15252786  0.41527085    -0.05900
C2291       C  0.44086078  0.13798727  0.42584197    -0.20900
C2292       C  0.43769833  0.12076499  0.41984378     0.24800
C2293       C  0.42947260  0.11837407  0.40326662    -0.18500
C2294       C  0.42496987  0.13308576  0.39275223    -0.08500
C2295       C  0.44340470  0.10591106  0.43141180    -0.18800
C2296       C  0.44963146  0.09037365  0.42527030    -0.23600
C2297       C  0.45808990  0.07680727  0.43691001     0.26800
C2298       C  0.45949391  0.05930222  0.43085993    -0.20300
C2299       C  0.46778194  0.04632797  0.44120514    -0.10000
C2300       C  0.47500158  0.05059073  0.45784003    -0.10500
C2301       C  0.47386730  0.06816832  0.46376845    -0.03400
C2302       C  0.46561640  0.08112308  0.45343222    -0.18600
H2303       H  0.43988420  0.16561941  0.42015469     0.10500
H2304       H  0.44706326  0.14020239  0.43858082     0.10600
H2305       H  0.42652446  0.10523344  0.39844698     0.10300
H2306       H  0.41898138  0.13100737  0.37989793     0.11400
H2307       H  0.44380998  0.10861816  0.44551402     0.11500
H2308       H  0.44906026  0.08766004  0.41115174     0.13400
H2309       H  0.45406139  0.05562164  0.41811463     0.09900
H2310       H  0.46840916  0.03291838  0.43620707     0.12000
H2311       H  0.47938468  0.07196577  0.47643805     0.08600
H2312       H  0.46555371  0.09453435  0.45837276     0.11300
C2313       C  0.39889916  0.68918769  0.64760764    -0.03300
C2314       C  0.38283104  0.68215060  0.64166499    -0.05900
C2315       C  0.36683131  0.68796546  0.64906495    -0.20900
C2316       C  0.36669098  0.70050792  0.66282633     0.24800
C2317       C  0.38277717  0.70741243  0.66877972    -0.18500
C2318       C  0.39862308  0.70188117  0.66124082    -0.08500
C2319       C  0.34977593  0.70666154  0.67068723    -0.18800
C2320       C  0.34831730  0.71008867  0.68813951    -0.23600
C2321       C  0.33189684  0.71640203  0.69670167     0.26800
C2322       C  0.32733622  0.70947656  0.71329241    -0.20300
C2323       C  0.31269797  0.71593237  0.72245863    -0.10000
C2324       C  0.30260507  0.72992337  0.71552236    -0.10500
C2325       C  0.30721995  0.73700913  0.69891822    -0.03400
C2326       C  0.32164140  0.73013952  0.68945730    -0.18600
H2327       H  0.38261855  0.67247349  0.63109395     0.10500
H2328       H  0.35456818  0.68254799  0.64417684     0.10600
H2329       H  0.38312023  0.71738356  0.67906912     0.10300
H2330       H  0.41073688  0.70760358  0.66616088     0.11400
H2331       H  0.33824584  0.70769974  0.66221943     0.11500
H2332       H  0.35939267  0.70720107  0.69680477     0.13400
H2333       H  0.33517285  0.69903027  0.71920137     0.09900
H2334       H  0.30955313  0.71027162  0.73525896     0.12000
H2335       H  0.29966568  0.74778979  0.69326374     0.08600
H2336       H  0.32512970  0.73592966  0.67681079     0.11300
C2337       C  0.43854217  0.64654797  0.61669349    -0.03300
C2338       C  0.45473782  0.63813298  0.61996783    -0.05900
C2339       C  0.45914917  0.62240771  0.61132135    -0.20900
C2340       C  0.44774529  0.61498951  0.59876594     0.24800
C2341       C  0.43134514  0.62319827  0.59565126    -0.18500
C2342       C  0.42670488  0.63877168  0.60471375    -0.08500
C2343       C  0.45349345  0.59870414  0.58930399    -0.18800
C2344       C  0.44973250  0.59551079  0.57214835    -0.23600
C2345       C  0.45736094  0.58032014  0.56211157     0.26800
C2346       C  0.46004364  0.58202846  0.54378245    -0.20300
C2347       C  0.46743331  0.56817280  0.53393379    -0.10000
C2348       C  0.47206274  0.55210657  0.54214096    -0.10500
C2349       C  0.46910417  0.55028438  0.56046358    -0.03400
C2350       C  0.46187276  0.56422078  0.57034537    -0.18600
H2351       H  0.46406877  0.64379746  0.62921076     0.10500
H2352       H  0.47177303  0.61627952  0.61407592     0.10600
H2353       H  0.42211957  0.61757796  0.58629486     0.10300
H2354       H  0.41416346  0.64504282  0.60193637     0.11400
H2355       H  0.46264729  0.59004541  0.59619246     0.11500
H2356       H  0.44204351  0.60517177  0.56478500     0.13400
H2357       H  0.45659917  0.59422940  0.53707870     0.09900
H2358       H  0.46937995  0.57001223  0.51983679     0.12000
H2359       H  0.47236346  0.53805655  0.56719663     0.08600
H2360       H  0.45957956  0.56223041  0.58435638     0.11300
C2361       C  0.70165595  0.77149393  0.70670566    -0.03300
C2362       C  0.69243070  0.75932919  0.69616902    -0.05900
C2363       C  0.67789147  0.76476269  0.68617370    -0.20900
C2364       C  0.67224444  0.78246540  0.68637401     0.24800
C2365       C  0.68156986  0.79470993  0.69679372    -0.18500
C2366       C  0.69614651  0.78927774  0.70677564    -0.08500
C2367       C  0.65597015  0.78722115  0.67644859    -0.18800
C2368       C  0.65106430  0.80388315  0.67228104    -0.23600
C2369       C  0.63412212  0.80799702  0.66321497     0.26800
C2370       C  0.63244615  0.82360162  0.65320722    -0.20300
C2371       C  0.61655212  0.82775965  0.64463824    -0.10000
C2372       C  0.60196372  0.81643599  0.64609020    -0.10500
C2373       C  0.60362939  0.80101506  0.65642472    -0.03400
C2374       C  0.61940693  0.79690066  0.66492698    -0.18600
H2375       H  0.69627384  0.74553475  0.69583176     0.10500
H2376       H  0.67088900  0.75501240  0.67838159     0.10600
H2377       H  0.67742096  0.80835703  0.69774843     0.10300
H2378       H  0.70285523  0.79897153  0.71488251     0.11400
H2379       H  0.64782287  0.77628334  0.67207513     0.11500
H2380       H  0.65982839  0.81484334  0.67505152     0.13400
H2381       H  0.64351522  0.83251654  0.65189155     0.09900
H2382       H  0.61570461  0.83979294  0.63690258     0.12000
H2383       H  0.59266816  0.79203332  0.65809103     0.08600
H2384       H  0.61984991  0.78515343  0.67309743     0.11300
C2385       C  0.56352269  0.85390547  0.60761950    -0.03300
C2386       C  0.57575364  0.86778042  0.60638304    -0.05900
C2387       C  0.57194183  0.88281476  0.59612870    -0.20900
C2388       C  0.55582993  0.88430963  0.58704091     0.24800
C2389       C  0.54392966  0.87013621  0.58781132    -0.18500
C2390       C  0.54768271  0.85523662  0.59801296    -0.08500
C2391       C  0.55188745  0.90049385  0.57648325    -0.18800
C2392       C  0.53526823  0.90593431  0.57308006    -0.23600
C2393       C  0.53055632  0.92160457  0.56208838     0.26800
C2394       C  0.51330535  0.92828944  0.56314566    -0.20300
C2395       C  0.50794703  0.94250213  0.55256205    -0.10000
C2396       C  0.51972896  0.95036917  0.54057658    -0.10500
C2397       C  0.53701146  0.94368606  0.53948611    -0.03400
C2398       C  0.54236195  0.92942780  0.55005130    -0.18600
H2399       H  0.58812845  0.86713030  0.61348502     0.10500
H2400       H  0.58147857  0.89342782  0.59551432     0.10600
H2401       H  0.53174934  0.87034075  0.58038338     0.10300
H2402       H  0.53805065  0.84470326  0.59830786     0.11400
H2403       H  0.56297070  0.90835592  0.57204480     0.11500
H2404       H  0.52436687  0.89883649  0.57905145     0.13400
H2405       H  0.50387378  0.92243618  0.57217428     0.09900
H2406       H  0.49453477  0.94726727  0.55372626     0.12000
H2407       H  0.54637481  0.94930662  0.53025253     0.08600
H2408       H  0.55559653  0.92439572  0.54839738     0.11300
C2409       C  0.54112460  0.79886511  0.63341609    -0.03300
C2410       C  0.52396683  0.80311907  0.62781787    -0.05900
C2411       C  0.51038182  0.79079530  0.62940539    -0.20900
C2412       C  0.51371174  0.77390808  0.63634888     0.24800
C2413       C  0.53076159  0.76980342  0.64239642    -0.18500
C2414       C  0.54431606  0.78215255  0.64092514    -0.08500
C2415       C  0.49911668  0.76095418  0.63721418    -0.18800
C2416       C  0.50179987  0.74336111  0.63643632    -0.23600
C2417       C  0.48730250  0.73025767  0.63641777     0.26800
C2418       C  0.49032358  0.71357368  0.62885988    -0.20300
C2419       C  0.47694866  0.70092586  0.62833858    -0.10000
C2420       C  0.46027401  0.70467082  0.63552272    -0.10500
C2421       C  0.45740570  0.72123846  0.64351369    -0.03400
C2422       C  0.47076841  0.73387975  0.64400324    -0.18600
H2423       H  0.52102193  0.81595458  0.62216093     0.10500
H2424       H  0.49729946  0.79434327  0.62487579     0.10600
H2425       H  0.53367314  0.75713772  0.64840512     0.10300
H2426       H  0.55734453  0.77850974  0.64551598     0.11400
H2427       H  0.48577961  0.76615624  0.63722554     0.11500
H2428       H  0.51507250  0.73831136  0.63459411     0.13400
H2429       H  0.50301460  0.71040034  0.62309853     0.09900
H2430       H  0.47965042  0.68828292  0.62216626     0.12000
H2431       H  0.44478915  0.72451589  0.64936375     0.08600
H2432       H  0.46812169  0.74635015  0.65050796     0.11300
C2433       C  0.27571715  0.21437808  0.19383220    -0.03300
C2434       C  0.27869408  0.22265111  0.17744005    -0.05900
C2435       C  0.28584229  0.21323148  0.16327948    -0.20900
C2436       C  0.29023074  0.19528414  0.16503429     0.24800
C2437       C  0.28748494  0.18693772  0.18149438    -0.18500
C2438       C  0.28035183  0.19644475  0.19578226    -0.08500
C2439       C  0.29624600  0.18577972  0.14887858    -0.18800
C2440       C  0.30351558  0.16949493  0.14845718    -0.23600
C2441       C  0.30739137  0.16059143  0.13130088     0.26800
C2442       C  0.32179877  0.14899598  0.12967284    -0.20300
C2443       C  0.32559752  0.14087874  0.11335296    -0.10000
C2444       C  0.31485678  0.14405148  0.09847152    -0.10500
C2445       C  0.30020842  0.15531839  0.10036939    -0.03400
C2446       C  0.29648378  0.16337350  0.11652048    -0.18600
H2447       H  0.27543300  0.23646551  0.17547641     0.10500
H2448       H  0.28773714  0.21999795  0.15076509     0.10600
H2449       H  0.29036207  0.17304391  0.18330594     0.10300
H2450       H  0.27820212  0.18968952  0.20824991     0.11400
H2451       H  0.29453482  0.19278499  0.13641873     0.11500
H2452       H  0.30697106  0.16271302  0.16064512     0.13400
H2453       H  0.33025295  0.14643527  0.14095355     0.09900
H2454       H  0.33687690  0.13214004  0.11240467     0.12000
H2455       H  0.29146073  0.15796421  0.08934362     0.08600
H2456       H  0.28485202  0.17163048  0.11742483     0.11300
C2457       C  0.28854401  0.30379156  0.22144473    -0.03300
C2458       C  0.28909806  0.30700983  0.20307008    -0.05900
C2459       C  0.29950220  0.32059499  0.19613699    -0.20900
C2460       C  0.30975494  0.33120501  0.20732563     0.24800
C2461       C  0.30902889  0.32815746  0.22575789    -0.18500
C2462       C  0.29861279  0.31456088  0.23270066    -0.08500
C2463       C  0.32044830  0.34570223  0.19937779    -0.18800
C2464       C  0.33454027  0.35279065  0.20751357    -0.23600
C2465       C  0.34442373  0.36831876  0.20072984     0.26800
C2466       C  0.35268833  0.37922545  0.21317142    -0.20300
C2467       C  0.36185161  0.39422717  0.20780793    -0.10000
C2468       C  0.36328815  0.39864339  0.18975573    -0.10500
C2469       C  0.35550904  0.38743312  0.17712781    -0.03400
C2470       C  0.34604015  0.37241959  0.18256977    -0.18600
H2471       H  0.28145585  0.29903419  0.19398435     0.10500
H2472       H  0.29962216  0.32275417  0.18194141     0.10600
H2473       H  0.31614857  0.33642815  0.23496607     0.10300
H2474       H  0.29834905  0.31258209  0.24691340     0.11400
H2475       H  0.31645494  0.35070658  0.18649648     0.11500
H2476       H  0.33861456  0.34767363  0.22030754     0.13400
H2477       H  0.35176938  0.37631205  0.22720521     0.09900
H2478       H  0.36779659  0.40242875  0.21792301     0.12000
H2479       H  0.35643378  0.39045620  0.16312942     0.08600
H2480       H  0.34017734  0.36402324  0.17258835     0.11300
C2481       C  0.30046244  0.23178757  0.28681186    -0.03300
C2482       C  0.30945172  0.24364257  0.29789767    -0.05900
C2483       C  0.32345474  0.23779508  0.30846690    -0.20900
C2484       C  0.32877321  0.21997144  0.30832065     0.24800
C2485       C  0.31963413  0.20804461  0.29738587    -0.18500
C2486       C  0.30562712  0.21388973  0.28682298    -0.08500
C2487       C  0.34450569  0.21473873  0.31893376    -0.18800
C2488       C  0.34905485  0.19791581  0.32294248    -0.23600
C2489       C  0.36531146  0.19348798  0.33310229     0.26800
C2490       C  0.36596774  0.17803115  0.34345890    -0.20300
C2491       C  0.38089891  0.17405641  0.35372128    -0.10000
C2492       C  0.39552610  0.18542388  0.35366562    -0.10500
C2493       C  0.39511622  0.20040071  0.34257481    -0.03400
C2494       C  0.38028147  0.20434381  0.33240513    -0.18600
H2495       H  0.30582656  0.25749696  0.29825192     0.10500
H2496       H  0.33029108  0.24731073  0.31668400     0.10600
H2497       H  0.32348471  0.19430525  0.29650549     0.10300
H2498       H  0.29902774  0.20438303  0.27841269     0.11400
H2499       H  0.35253935  0.22545524  0.32401761     0.11500
H2500       H  0.34037974  0.18709994  0.31943826     0.13400
H2501       H  0.35472450  0.16925761  0.34396872     0.09900
H2502       H  0.38080712  0.16235617  0.36199472     0.12000
H2503       H  0.40623634  0.20931068  0.34185560     0.08600
H2504       H  0.38065221  0.21590926  0.32396927     0.11300
C2505       C  0.22356751  0.29232989  0.29467632    -0.03300
C2506       C  0.20606218  0.28995645  0.30027755    -0.05900
C2507       C  0.19887477  0.30056967  0.31364746    -0.20900
C2508       C  0.20889228  0.31393638  0.32167475     0.24800
C2509       C  0.22643115  0.31636050  0.31598633    -0.18500
C2510       C  0.23362748  0.30570811  0.30264099    -0.08500
C2511       C  0.20081947  0.32427956  0.33648441    -0.18800
C2512       C  0.20779927  0.33920125  0.34321552    -0.23600
C2513       C  0.20100304  0.34813912  0.35938209     0.26800
C2514       C  0.21315505  0.35688741  0.37021453    -0.20300
C2515       C  0.20778903  0.36477429  0.38600488    -0.10000
C2516       C  0.19002232  0.36450506  0.39121289    -0.10500
C2517       C  0.17759965  0.35646920  0.38004714    -0.03400
C2518       C  0.18306943  0.34818588  0.36427976    -0.18600
H2519       H  0.19793140  0.27973826  0.29447244     0.10500
H2520       H  0.18541973  0.29825062  0.31780503     0.10600
H2521       H  0.23491741  0.32610174  0.32198403     0.10300
H2522       H  0.24715250  0.30788489  0.29865459     0.11400
H2523       H  0.18890735  0.31900887  0.34242173     0.11500
H2524       H  0.21975002  0.34459373  0.33756911     0.13400
H2525       H  0.22699305  0.35717271  0.36670639     0.09900
H2526       H  0.21764561  0.37096721  0.39430863     0.12000
H2527       H  0.16384347  0.35605353  0.38381085     0.08600
H2528       H  0.17329909  0.34189341  0.35598350     0.11300
C2529       C  0.23069907  0.70801586  0.20203878    -0.03300
C2530       C  0.24271359  0.69616485  0.19428553    -0.05900
C2531       C  0.23745341  0.68494603  0.18053782    -0.20900
C2532       C  0.22007071  0.68522114  0.17409986     0.24800
C2533       C  0.20799325  0.69707885  0.18188794    -0.18500
C2534       C  0.21325692  0.70827662  0.19570931    -0.08500
C2535       C  0.21557203  0.67332414  0.15893911    -0.18800
C2536       C  0.19935434  0.67128402  0.15180751    -0.23600
C2537       C  0.19586231  0.65992008  0.13598637     0.26800
C2538       C  0.17869471  0.65372341  0.13274753    -0.20300
C2539       C  0.17495378  0.64339441  0.11773854    -0.10000
C2540       C  0.18831113  0.63919654  0.10552418    -0.10500
C2541       C  0.20543824  0.64552365  0.10876248    -0.03400
C2542       C  0.20914704  0.65578607  0.12366404    -0.18600
H2543       H  0.25623758  0.69556340  0.19880339     0.10500
H2544       H  0.24711133  0.67604861  0.17481870     0.10600
H2545       H  0.19454200  0.69801556  0.17734110     0.10300
H2546       H  0.20364937  0.71727093  0.20134413     0.11400
H2547       H  0.22640539  0.66568130  0.15350860     0.11500
H2548       H  0.18809584  0.67780555  0.15775453     0.13400
H2549       H  0.16813121  0.65688595  0.14187239     0.09900
H2550       H  0.16159689  0.63889714  0.11560627     0.12000
H2551       H  0.21609595  0.64274419  0.09963109     0.08600
H2552       H  0.22238734  0.66078713  0.12513239     0.11300
C2553       C  0.19658646  0.72558711  0.28943463    -0.03300
C2554       C  0.18017849  0.72423101  0.28088769    -0.05900
C2555       C  0.16543955  0.71778581  0.28988254    -0.20900
C2556       C  0.16662867  0.71234142  0.30762896     0.24800
C2557       C  0.18307164  0.71344047  0.31621210    -0.18500
C2558       C  0.19788454  0.71998908  0.30719132    -0.08500
C2559       C  0.15011564  0.70690084  0.31683924    -0.18800
C2560       C  0.14937639  0.69740768  0.33198872    -0.23600
C2561       C  0.13236677  0.69333257  0.34103996     0.26800
C2562       C  0.13074062  0.67799728  0.35147771    -0.20300
C2563       C  0.11484923  0.67409798  0.36020335    -0.10000
C2564       C  0.10038295  0.68568326  0.35893948    -0.10500
C2565       C  0.10218903  0.70114686  0.34870936    -0.03400
C2566       C  0.11790713  0.70492557  0.33991891    -0.18600
H2567       H  0.17862389  0.72834257  0.26722645     0.10500
H2568       H  0.15296151  0.71719650  0.28294032     0.10600
H2569       H  0.18447487  0.70975045  0.32998861     0.10300
H2570       H  0.21030279  0.72085195  0.31418883     0.11400
H2571       H  0.13784430  0.71068015  0.31046862     0.11500
H2572       H  0.16137811  0.69205187  0.33768722     0.13400
H2573       H  0.14174677  0.66894682  0.35275969     0.09900
H2574       H  0.11395620  0.66215510  0.36807077     0.12000
H2575       H  0.09139166  0.71044556  0.34742432     0.08600
H2576       H  0.11876268  0.71717098  0.33255060     0.11300
C2577       C  0.29136804  0.70147334  0.27969414    -0.03300
C2578       C  0.29116358  0.69730966  0.29787860    -0.05900
C2579       C  0.30260053  0.68445242  0.30479478    -0.20900
C2580       C  0.31463068  0.67557394  0.29377856     0.24800
C2581       C  0.31471641  0.67966842  0.27555022    -0.18500
C2582       C  0.30330655  0.69248484  0.26865192    -0.08500
C2583       C  0.32615970  0.66148587  0.30148122    -0.18800
C2584       C  0.34117590  0.65596704  0.29367867    -0.23600
C2585       C  0.35171293  0.64042377  0.29958485     0.26800
C2586       C  0.36153025  0.63137012  0.28672994    -0.20300
C2587       C  0.37120846  0.61632053  0.29115200    -0.10000
C2588       C  0.37164088  0.61003316  0.30867938    -0.10500
C2589       C  0.36234797  0.61941651  0.32179913    -0.03400
C2590       C  0.35234282  0.63444466  0.31727783    -0.18600
H2591       H  0.28210892  0.70392765  0.30677908     0.10500
H2592       H  0.30206237  0.68144368  0.31882276     0.10600
H2593       H  0.32321230  0.67273689  0.26638274     0.10300
H2594       H  0.30375651  0.69523191  0.25457216     0.11400
H2595       H  0.32185249  0.65524989  0.31368964     0.11500
H2596       H  0.34556184  0.66239475  0.28161661     0.13400
H2597       H  0.36139146  0.63572916  0.27304641     0.09900
H2598       H  0.37830768  0.60951216  0.28072681     0.12000
H2599       H  0.36243561  0.61487932  0.33541365     0.08600
H2600       H  0.34524442  0.64135203  0.32761224     0.11300
C2601       C  0.27241716  0.79079094  0.30439623    -0.03300
C2602       C  0.27961843  0.80740498  0.30016755    -0.05900
C2603       C  0.28700696  0.81811033  0.31333422    -0.20900
C2604       C  0.28729836  0.81260776  0.33109860     0.24800
C2605       C  0.28021856  0.79589694  0.33533302    -0.18500
C2606       C  0.27281014  0.78518686  0.32215399    -0.08500
C2607       C  0.29514379  0.82461220  0.34470295    -0.18800
C2608       C  0.29114166  0.82363161  0.36207040    -0.23600
C2609       C  0.29722383  0.83640406  0.37579223     0.26800
C2610       C  0.28716062  0.83780085  0.39127088    -0.20300
C2611       C  0.29178565  0.84961937  0.40460206    -0.10000
C2612       C  0.30679735  0.86039394  0.40302539    -0.10500
C2613       C  0.31728305  0.85873563  0.38772932    -0.03400
C2614       C  0.31251212  0.84686719  0.37417034    -0.18600
H2615       H  0.27967783  0.81212994  0.28661854     0.10500
H2616       H  0.29242744  0.83082223  0.30962154     0.10600
H2617       H  0.28063020  0.79080339  0.34871131     0.10300
H2618       H  0.26757506  0.77240331  0.32586557     0.11400
H2619       H  0.30343117  0.83532368  0.34004464     0.11500
H2620       H  0.28168420  0.81383060  0.36642810     0.13400
H2621       H  0.27542997  0.82985196  0.39299213     0.09900
H2622       H  0.28342215  0.85029094  0.41620883     0.12000
H2623       H  0.32897746  0.86674350  0.38614057     0.08600
H2624       H  0.32085604  0.84583432  0.36259487     0.11300
C2625       C  0.21079654  0.80145427  0.23001146    -0.03300
C2626       C  0.21694713  0.81890750  0.23148941    -0.05900
C2627       C  0.20648038  0.83314111  0.22611831    -0.20900
C2628       C  0.18968049  0.83035092  0.21891710     0.24800
C2629       C  0.18350373  0.81289682  0.21722677    -0.18500
C2630       C  0.19396460  0.79859430  0.22274325    -0.08500
C2631       C  0.17880578  0.84609910  0.21436722    -0.18800
C2632       C  0.16531022  0.84608446  0.20274164    -0.23600
C2633       C  0.15513772  0.86244687  0.19865843     0.26800
C2634       C  0.14806957  0.86498509  0.18163494    -0.20300
C2635       C  0.13923903  0.88073841  0.17732358    -0.10000
C2636       C  0.13711028  0.89416050  0.19005683    -0.10500
C2637       C  0.14356627  0.89121029  0.20730133    -0.03400
C2638       C  0.15240988  0.87557554  0.21154932    -0.18600
H2639       H  0.22981448  0.82164011  0.23703838     0.10500
H2640       H  0.21152589  0.84643183  0.22766817     0.10600
H2641       H  0.17045976  0.81024230  0.21211271     0.10300
H2642       H  0.18880872  0.78532496  0.22146588     0.11400
H2643       H  0.18269722  0.85853372  0.22036500     0.11500
H2644       H  0.16231902  0.83421421  0.19527827     0.13400
H2645       H  0.14978209  0.85496140  0.17153963     0.09900
H2646       H  0.13430621  0.88248599  0.16396410     0.12000
H2647       H  0.14197772  0.90107207  0.21757212     0.08600
H2648       H  0.15706248  0.87380105  0.22500346     0.11300
C2649       C  0.04188286  0.01922668  0.44628165    -0.03300
C2650       C  0.03667906  0.01580025  0.42875976    -0.05900
C2651       C  0.04681322  0.02176557  0.41451870    -0.20900
C2652       C  0.06226994  0.03151813  0.41736812     0.24800
C2653       C  0.06752550  0.03501218  0.43490777    -0.18500
C2654       C  0.05743940  0.02888603  0.44920621    -0.08500
C2655       C  0.07286992  0.03681223  0.40165404    -0.18800
C2656       C  0.08520753  0.04963989  0.40153032    -0.23600
C2657       C  0.09553781  0.05389197  0.38529225     0.26800
C2658       C  0.10168261  0.07118356  0.38238876    -0.20300
C2659       C  0.11075169  0.07548826  0.36673869    -0.10000
C2660       C  0.11392907  0.06249960  0.35378371    -0.10500
C2661       C  0.10843169  0.04505699  0.35715892    -0.03400
C2662       C  0.09946391  0.04079800  0.37268788    -0.18600
H2663       H  0.02480615  0.00837943  0.42602411     0.10500
H2664       H  0.04252592  0.01873864  0.40116722     0.10600
H2665       H  0.07955153  0.04212137  0.43768545     0.10300
H2666       H  0.06178259  0.03179345  0.46255944     0.11400
H2667       H  0.06984938  0.03006818  0.38932488     0.11500
H2668       H  0.08726212  0.05774092  0.41320730     0.13400
H2669       H  0.09908691  0.08145885  0.39204372     0.09900
H2670       H  0.11494032  0.08900367  0.36463767     0.12000
H2671       H  0.11097105  0.03456631  0.34772693     0.08600
H2672       H  0.09569626  0.02716506  0.37478583     0.11300
C2673       C  0.14699512  0.10296076  0.31346344    -0.03300
C2674       C  0.14705912  0.11709790  0.32558940    -0.05900
C2675       C  0.15543373  0.13309676  0.32130314    -0.20900
C2676       C  0.16408188  0.13516489  0.30495567     0.24800
C2677       C  0.16366193  0.12114615  0.29275367    -0.18500
C2678       C  0.15533653  0.10529896  0.29697259    -0.08500
C2679       C  0.17306789  0.15209987  0.30052753    -0.18800
C2680       C  0.18722868  0.15257033  0.28972813    -0.23600
C2681       C  0.19631191  0.16890133  0.28365044     0.26800
C2682       C  0.21317985  0.16714231  0.27624924    -0.20300
C2683       C  0.22195886  0.18175106  0.26923877    -0.10000
C2684       C  0.21403237  0.19857196  0.26927958    -0.10500
C2685       C  0.19713162  0.20042054  0.27673332    -0.03400
C2686       C  0.18833925  0.18573865  0.28385932    -0.18600
H2687       H  0.14063792  0.11582269  0.33833681     0.10500
H2688       H  0.15534750  0.14379443  0.33084353     0.10600
H2689       H  0.16952451  0.12243634  0.27974648     0.10300
H2690       H  0.15543005  0.09486760  0.28714751     0.11400
H2691       H  0.16822139  0.16415420  0.30663160     0.11500
H2692       H  0.19282678  0.14013520  0.28520252     0.13400
H2693       H  0.21959644  0.15433387  0.27577937     0.09900
H2694       H  0.23495604  0.17979575  0.26364919     0.12000
H2695       H  0.19066944  0.21320025  0.27700874     0.08600
H2696       H  0.17520063  0.18758599  0.28908125     0.11300
C2697       C  0.12954415  0.04370978  0.29371673    -0.03300
C2698       C  0.14282573  0.04298748  0.28078249    -0.05900
C2699       C  0.14286686  0.02953865  0.26808435    -0.20900
C2700       C  0.12940681  0.01687236  0.26779355     0.24800
C2701       C  0.11596247  0.01773900  0.28057549    -0.18500
C2702       C  0.11610415  0.03097845  0.29347888    -0.08500
C2703       C  0.13022416  0.00241557  0.25459569    -0.18800
C2704       C  0.11577812  0.99471761  0.24781251    -0.23600
C2705       C  0.11693984  0.98044010  0.23446631     0.26800
C2706       C  0.10453039  0.97979790  0.22073247    -0.20300
C2707       C  0.10567375  0.96674268  0.20767453    -0.10000
C2708       C  0.11895309  0.95378737  0.20845282    -0.10500
C2709       C  0.13101774  0.95407974  0.22255649    -0.03400
C2710       C  0.13011036  0.96736964  0.23538407    -0.18600
H2711       H  0.15340540  0.05256701  0.28073921     0.10500
H2712       H  0.15342501  0.02902986  0.25843705     0.10600
H2713       H  0.10561399  0.00792994  0.28094451     0.10300
H2714       H  0.10569137  0.03124943  0.30328914     0.11400
H2715       H  0.14312971  0.99857554  0.24966828     0.11500
H2716       H  0.10280077  0.99975394  0.25121951     0.13400
H2717       H  0.09416528  0.98963930  0.21990918     0.09900
H2718       H  0.09608580  0.96668881  0.19704747     0.12000
H2719       H  0.14134209  0.94421058  0.22350027     0.08600
H2720       H  0.13959245  0.96731600  0.24610165     0.11300
C2721       C  0.56538036  0.64076240  0.11002342    -0.03300
C2722       C  0.54866120  0.63368056  0.11360428    -0.05900
C2723       C  0.54328320  0.61784911  0.10572175    -0.20900
C2724       C  0.55423881  0.60909271  0.09359004     0.24800
C2725       C  0.57121407  0.61584771  0.09038818    -0.18500
C2726       C  0.57681300  0.63146205  0.09871451    -0.08500
C2727       C  0.54741183  0.59324352  0.08417930    -0.18800
C2728       C  0.55012308  0.59064231  0.06672354    -0.23600
C2729       C  0.54179190  0.57608477  0.05642074     0.26800
C2730       C  0.53810737  0.57880304  0.03839162    -0.20300
C2731       C  0.53060845  0.56538503  0.02810521    -0.10000
C2732       C  0.52689818  0.54874620  0.03552995    -0.10500
C2733       C  0.53066294  0.54597905  0.05360087    -0.03400
C2734       C  0.53795768  0.55951214  0.06395911    -0.18600
H2735       H  0.53961713  0.64058936  0.12230088     0.10500
H2736       H  0.53021984  0.61283297  0.10851491     0.10600
H2737       H  0.58005944  0.60915846  0.08133280     0.10300
H2738       H  0.58972807  0.63670214  0.09567535     0.11400
H2739       H  0.53839693  0.58466584  0.09129687     0.11500
H2740       H  0.55764256  0.60040856  0.05936558     0.13400
H2741       H  0.54097157  0.59142222  0.03224354     0.09900
H2742       H  0.52794005  0.56799008  0.01424918     0.12000
H2743       H  0.52802676  0.53331546  0.05974740     0.08600
H2744       H  0.54094776  0.55683718  0.07772662     0.11300
C2745       C  0.70213531  0.72145660  0.20873700    -0.03300
C2746       C  0.69984305  0.70299745  0.20844273    -0.05900
C2747       C  0.68666861  0.69528933  0.19806440    -0.20900
C2748       C  0.67551881  0.70577101  0.18756539     0.24800
C2749       C  0.67782795  0.72427289  0.18777680    -0.18500
C2750       C  0.69102530  0.73200094  0.19818800    -0.08500
C2751       C  0.66110746  0.69697513  0.17741150    -0.18800
C2752       C  0.65338518  0.70424806  0.16304889    -0.23600
C2753       C  0.63802557  0.69653535  0.15343051     0.26800
C2754       C  0.62835473  0.70780386  0.14230610    -0.20300
C2755       C  0.61324962  0.70184978  0.13368733    -0.10000
C2756       C  0.60745012  0.68433636  0.13571494    -0.10500
C2757       C  0.61749624  0.67268720  0.14615483    -0.03400
C2758       C  0.63263135  0.67873789  0.15502450    -0.18600
H2759       H  0.70815056  0.69443434  0.21638818     0.10500
H2760       H  0.68514832  0.68106495  0.19828146     0.10600
H2761       H  0.66918502  0.73293335  0.18035691     0.10300
H2762       H  0.69231669  0.74625085  0.19820577     0.11400
H2763       H  0.65680920  0.68416048  0.18209785     0.11500
H2764       H  0.65807632  0.71692504  0.15833320     0.13400
H2765       H  0.63221195  0.72148196  0.14064587     0.09900
H2766       H  0.60586366  0.71113467  0.12563667     0.12000
H2767       H  0.61328791  0.65914085  0.14800090     0.08600
H2768       H  0.63991452  0.66945429  0.16310784     0.11300
C2769       C  0.43814127  0.84774236  0.11177334    -0.03300
C2770       C  0.45595788  0.85266405  0.11251380    -0.05900
C2771       C  0.46157172  0.86876007  0.10547852    -0.20900
C2772       C  0.44963600  0.88026711  0.09717212     0.24800
C2773       C  0.43163158  0.87569814  0.09693911    -0.18500
C2774       C  0.42593718  0.85960274  0.10428715    -0.08500
C2775       C  0.45682487  0.89657002  0.08875085    -0.18800
C2776       C  0.44903430  0.90528455  0.07524888    -0.23600
C2777       C  0.45761674  0.92005113  0.06534909     0.26800
C2778       C  0.44704414  0.93166734  0.05544125    -0.20300
C2779       C  0.45461601  0.94506781  0.04516363    -0.10000
C2780       C  0.47302728  0.94711754  0.04440811    -0.10500
C2781       C  0.48363455  0.93551779  0.05433419    -0.03400
C2782       C  0.47605932  0.92211544  0.06461899    -0.18600
H2783       H  0.46567182  0.84391831  0.11836367     0.10500
H2784       H  0.47545970  0.87197715  0.10604118     0.10600
H2785       H  0.42193361  0.88442436  0.09109439     0.10300
H2786       H  0.41211638  0.85617302  0.10357112     0.11400
H2787       H  0.46970322  0.90082787  0.09324317     0.11500
H2788       H  0.43605586  0.90124351  0.07083248     0.13400
H2789       H  0.43284035  0.93032151  0.05558847     0.09900
H2790       H  0.44601001  0.95375104  0.03770177     0.12000
H2791       H  0.49784866  0.93662331  0.05397239     0.08600
H2792       H  0.48479039  0.91313503  0.07150290     0.11300
C2793       C  0.39453280  0.80513981  0.13646330    -0.03300
C2794       C  0.38799446  0.78786185  0.13465244    -0.05900
C2795       C  0.37269711  0.78264376  0.14346526    -0.20900
C2796       C  0.36367914  0.79441941  0.15461170     0.24800
C2797       C  0.36973718  0.81200809  0.15583585    -0.18500
C2798       C  0.38499760  0.81732501  0.14675836    -0.08500
C2799       C  0.34828276  0.78757277  0.16478819    -0.18800
C2800       C  0.34247326  0.79466847  0.18011480    -0.23600
C2801       C  0.32800799  0.78691726  0.19101866     0.26800
C2802       C  0.31907401  0.79790238  0.20302782    -0.20300
C2803       C  0.30572773  0.79119446  0.21388281    -0.10000
C2804       C  0.30108895  0.77320478  0.21319861    -0.10500
C2805       C  0.31018562  0.76209761  0.20135618    -0.03400
C2806       C  0.32348879  0.76885101  0.19038750    -0.18600
H2807       H  0.39494857  0.77820624  0.12666272     0.10500
H2808       H  0.36823944  0.76911837  0.14204667     0.10600
H2809       H  0.36284868  0.82166741  0.16382761     0.10300
H2810       H  0.38971901  0.83072988  0.14836595     0.11400
H2811       H  0.34211649  0.77564380  0.15980344     0.11500
H2812       H  0.34855524  0.80664000  0.18509843     0.13400
H2813       H  0.32238892  0.81179686  0.20397240     0.09900
H2814       H  0.29910401  0.80013586  0.22291002     0.12000
H2815       H  0.30704162  0.74815952  0.20056684     0.08600
H2816       H  0.33040833  0.75976845  0.18177145     0.11300
C2817       C  0.54763847  0.70254726  0.12023216    -0.03300
C2818       C  0.55175108  0.71968885  0.12615062    -0.05900
C2819       C  0.53925589  0.73323279  0.12539302    -0.20900
C2820       C  0.52228654  0.73001326  0.11886319     0.24800
C2821       C  0.51816067  0.71294042  0.11268858    -0.18500
C2822       C  0.53071016  0.69934446  0.11341104    -0.08500
C2823       C  0.50949645  0.74492137  0.11840985    -0.18800
C2824       C  0.49190940  0.74270553  0.11869977    -0.23600
C2825       C  0.47916003  0.75766401  0.11923258     0.26800
C2826       C  0.46225906  0.75461013  0.12605867    -0.20300
C2827       C  0.44982883  0.76824287  0.12684595    -0.10000
C2828       C  0.45397120  0.78529250  0.12069265    -0.10500
C2829       C  0.47083796  0.78832107  0.11363025    -0.03400
C2830       C  0.48328197  0.77465793  0.11283861    -0.18600
H2831       H  0.56466057  0.72270991  0.13142259     0.10500
H2832       H  0.54282751  0.74627385  0.13010498     0.10600
H2833       H  0.50539237  0.71007061  0.10704229     0.10300
H2834       H  0.52716096  0.68635877  0.10855895     0.11400
H2835       H  0.51487838  0.75818542  0.11907631     0.11500
H2836       H  0.48656307  0.72944691  0.11973339     0.13400
H2837       H  0.45869241  0.74163418  0.13096084     0.09900
H2838       H  0.43697298  0.76538974  0.13234115     0.12000
H2839       H  0.47442712  0.80123723  0.10860943     0.08600
H2840       H  0.49596117  0.77743483  0.10695099     0.11300
C2841       C  0.02476007  0.54924887  0.46132471    -0.03300
C2842       C  0.04308371  0.55168122  0.46002118    -0.05900
C2843       C  0.05006960  0.56483621  0.44908358    -0.20900
C2844       C  0.03898143  0.57582045  0.43905764     0.24800
C2845       C  0.02060947  0.57345832  0.44039061    -0.18500
C2846       C  0.01360757  0.56027399  0.45134644    -0.08500
C2847       C  0.04705978  0.59017490  0.42825329    -0.18800
C2848       C  0.03884839  0.59809671  0.41455359    -0.23600
C2849       C  0.04595741  0.61381244  0.40512398     0.26800
C2850       C  0.03389275  0.62559292  0.39747379    -0.20300
C2851       C  0.03963072  0.64120384  0.38955410    -0.10000
C2852       C  0.05766454  0.64533153  0.38876307    -0.10500
C2853       C  0.06991115  0.63313253  0.39555910    -0.03400
C2854       C  0.06411084  0.61751713  0.40377907    -0.18600
H2855       H  0.05209097  0.54344019  0.46750951     0.10500
H2856       H  0.06423124  0.56644721  0.44846342     0.10600
H2857       H  0.01152324  0.58200219  0.43340742     0.10300
H2858       H  0.99944003  0.55886325  0.45215544     0.11400
H2859       H  0.06013563  0.59453618  0.43204353     0.11500
H2860       H  0.02580351  0.59371607  0.41071070     0.13400
H2861       H  0.01987729  0.62299392  0.39813440     0.09900
H2862       H  0.02985040  0.65021533  0.38424521     0.12000
H2863       H  0.08388138  0.63594282  0.39506447     0.08600
H2864       H  0.07382962  0.60846352  0.40907148     0.11300
C2865       C  0.03996027  0.52478473  0.55267174    -0.03300
C2866       C  0.05831684  0.52645699  0.55095436    -0.05900
C2867       C  0.06815169  0.53541168  0.56383283    -0.20900
C2868       C  0.05990809  0.54301214  0.57868386     0.24800
C2869       C  0.04146604  0.54147759  0.58026115    -0.18500
C2870       C  0.03168932  0.53232920  0.56752175    -0.08500
C2871       C  0.07102526  0.55230013  0.59211894    -0.18800
C2872       C  0.06542722  0.55632601  0.60860028    -0.23600
C2873       C  0.07700569  0.56334062  0.62286082     0.26800
C2874       C  0.07228599  0.55972912  0.64045022    -0.20300
C2875       C  0.08330443  0.56452851  0.65439008    -0.10000
C2876       C  0.09917787  0.57342826  0.65115248    -0.10500
C2877       C  0.10348711  0.57814538  0.63368389    -0.03400
C2878       C  0.09252186  0.57303833  0.61957762    -0.18600
H2879       H  0.06509077  0.52087606  0.53962064     0.10500
H2880       H  0.08228755  0.53639014  0.56217835     0.10600
H2881       H  0.03433168  0.54753017  0.59106230     0.10300
H2882       H  0.01753053  0.53158886  0.56907385     0.11400
H2883       H  0.08468399  0.55473305  0.58866748     0.11500
H2884       H  0.05222118  0.55271372  0.61260553     0.13400
H2885       H  0.06033201  0.55250934  0.64340739     0.09900
H2886       H  0.07961016  0.56086550  0.66776565     0.12000
H2887       H  0.11567731  0.58500858  0.63088849     0.08600
H2888       H  0.09631364  0.57651498  0.60620684     0.11300
C2889       C  0.05097676  0.46004016  0.47495117    -0.03300
C2890       C  0.04795983  0.44244554  0.46971644    -0.05900
C2891       C  0.06110486  0.43268649  0.46098510    -0.20900
C2892       C  0.07761113  0.44021251  0.45724475     0.24800
C2893       C  0.08042557  0.45800052  0.46208102    -0.18500
C2894       C  0.06735998  0.46768626  0.47091843    -0.08500
C2895       C  0.09150101  0.42909024  0.44848894    -0.18800
C2896       C  0.10882876  0.43303573  0.44905497    -0.23600
C2897       C  0.12336471  0.42143086  0.44245737     0.26800
C2898       C  0.14021711  0.42422074  0.44950112    -0.20300
C2899       C  0.15437090  0.41352814  0.44460207    -0.10000
C2900       C  0.15224539  0.39984634  0.43221046    -0.10500
C2901       C  0.13557562  0.39738322  0.42446280    -0.03400
C2902       C  0.12117533  0.40801035  0.42964045    -0.18600
H2903       H  0.03542787  0.43617677  0.47238786     0.10500
H2904       H  0.05841573  0.41911878  0.45730184     0.10600
H2905       H  0.09257283  0.46471025  0.45891843     0.10300
H2906       H  0.07004774  0.48130736  0.47438491     0.11400
H2907       H  0.08740640  0.41667724  0.44259389     0.11500
H2908       H  0.11296167  0.44476728  0.45614582     0.13400
H2909       H  0.14241478  0.43453976  0.45920811     0.09900
H2910       H  0.16707861  0.41596291  0.45063949     0.12000
H2911       H  0.13358511  0.38697189  0.41482151     0.08600
H2912       H  0.10847586  0.40571692  0.42358506     0.11300
C2913       C  0.96042882  0.47740945  0.45141760    -0.03300
C2914       C  0.96628875  0.46266689  0.44171918    -0.05900
C2915       C  0.95685447  0.45667292  0.42704748    -0.20900
C2916       C  0.94103484  0.46484505  0.42211960     0.24800
C2917       C  0.93469375  0.47917843  0.43215031    -0.18500
C2918       C  0.94446741  0.48558188  0.44658335    -0.08500
C2919       C  0.93262156  0.45948401  0.40529914    -0.18800
C2920       C  0.91535637  0.45591791  0.40370545    -0.23600
C2921       C  0.90767076  0.45092346  0.38631716     0.26800
C2922       C  0.89489916  0.43756081  0.38515959    -0.20300
C2923       C  0.88767577  0.43287477  0.36868063    -0.10000
C2924       C  0.89278754  0.44184686  0.35318726    -0.10500
C2925       C  0.90548091  0.45530257  0.35449004    -0.03400
C2926       C  0.91287353  0.45972526  0.37080593    -0.18600
H2927       H  0.97856261  0.45614708  0.44508139     0.10500
H2928       H  0.96203453  0.44573201  0.41936505     0.10600
H2929       H  0.92263357  0.48585956  0.42835707     0.10300
H2930       H  0.93963552  0.49693110  0.45388100     0.11400
H2931       H  0.94123150  0.45751831  0.39395709     0.11500
H2932       H  0.90696825  0.45602217  0.41537227     0.13400
H2933       H  0.89064952  0.43065252  0.39698008     0.09900
H2934       H  0.87783776  0.42254871  0.36811776     0.12000
H2935       H  0.90972283  0.46251363  0.34284955     0.08600
H2936       H  0.92244282  0.47030813  0.37133299     0.11300
C2937       C  0.92503294  0.34762201  0.59480488    -0.03300
C2938       C  0.93395738  0.34535690  0.57863621    -0.05900
C2939       C  0.93915938  0.35991083  0.56857881    -0.20900
C2940       C  0.93596287  0.37716539  0.57454783     0.24800
C2941       C  0.92654127  0.37957618  0.59047274    -0.18500
C2942       C  0.92099264  0.36488389  0.60045456    -0.08500
C2943       C  0.94283790  0.39204964  0.56366654    -0.18800
C2944       C  0.94840073  0.40755692  0.57046908    -0.23600
C2945       C  0.95751073  0.42147526  0.55979421     0.26800
C2946       C  0.95874531  0.43869264  0.56667243    -0.20300
C2947       C  0.96750043  0.45203672  0.55727971    -0.10000
C2948       C  0.97533208  0.44846641  0.54075863    -0.10500
C2949       C  0.97436089  0.43117979  0.53399851    -0.03400
C2950       C  0.96567603  0.41784103  0.54340249    -0.18600
H2951       H  0.93716456  0.33224063  0.57383088     0.10500
H2952       H  0.94623361  0.35766158  0.55630742     0.10600
H2953       H  0.92347518  0.39272708  0.59522605     0.10300
H2954       H  0.91413972  0.36702303  0.61285877     0.11400
H2955       H  0.94447436  0.38944566  0.54963949     0.11500
H2956       H  0.94665103  0.41005850  0.58452904     0.13400
H2957       H  0.95279565  0.44187508  0.57932729     0.09900
H2958       H  0.96793065  0.46521463  0.56287621     0.12000
H2959       H  0.98033086  0.42791364  0.52137929     0.08600
H2960       H  0.96573551  0.40469185  0.53781197     0.11300
C2961       C  0.67813674  0.64821182  0.39987105    -0.03300
C2962       C  0.66474746  0.65569526  0.38938071    -0.05900
C2963       C  0.66900278  0.66556601  0.37419787    -0.20900
C2964       C  0.68665211  0.66773710  0.36900088     0.24800
C2965       C  0.69996362  0.65992432  0.37932144    -0.18500
C2966       C  0.69575933  0.65033576  0.39453723    -0.08500
C2967       C  0.69111419  0.67904179  0.35348608    -0.18800
C2968       C  0.70531857  0.67585801  0.34323608    -0.23600
C2969       C  0.71115979  0.68759758  0.32858289     0.26800
C2970       C  0.72055310  0.68017988  0.31438879    -0.20300
C2971       C  0.72728483  0.69088249  0.30089038    -0.10000
C2972       C  0.72518156  0.70933962  0.30152529    -0.10500
C2973       C  0.71590074  0.71682901  0.31581585    -0.03400
C2974       C  0.70883113  0.70605717  0.32915836    -0.18600
H2975       H  0.65106676  0.65441502  0.39321751     0.10500
H2976       H  0.65851468  0.67159408  0.36654571     0.10600
H2977       H  0.71371973  0.66170430  0.37602278     0.10300
H2978       H  0.70642020  0.64477497  0.40230048     0.11400
H2979       H  0.68241037  0.69002017  0.35033002     0.11500
H2980       H  0.71290122  0.66384598  0.34539832     0.13400
H2981       H  0.72270790  0.66602563  0.31375504     0.09900
H2982       H  0.73443169  0.68472408  0.29009956     0.12000
H2983       H  0.71403489  0.73100949  0.31662857     0.08600
H2984       H  0.70202631  0.71223210  0.34014710     0.11300
C2985       C  0.63778820  0.61577390  0.44069129    -0.03300
C2986       C  0.62455490  0.61352177  0.42783336    -0.05900
C2987       C  0.60896856  0.60442542  0.43200729    -0.20900
C2988       C  0.60641214  0.59726193  0.44901282     0.24800
C2989       C  0.61928915  0.60025380  0.46203224    -0.18500
C2990       C  0.63474248  0.60930219  0.45791668    -0.08500
C2991       C  0.59036672  0.58664925  0.45301353    -0.18800
C2992       C  0.59078144  0.57303965  0.46459497    -0.23600
C2993       C  0.57545708  0.56174443  0.46935694     0.26800
C2994       C  0.57882066  0.54505600  0.47679718    -0.20300
C2995       C  0.56504437  0.53426133  0.48253186    -0.10000
C2996       C  0.54746624  0.53996384  0.48119576    -0.10500
C2997       C  0.54402286  0.55666040  0.47363404    -0.03400
C2998       C  0.55786643  0.56744681  0.46774726    -0.18600
H2999       H  0.62638623  0.61844070  0.41448480     0.10500
H3000       H  0.59911914  0.60253584  0.42180200     0.10600
H3001       H  0.61747834  0.59560192  0.47547482     0.10300
H3002       H  0.64441251  0.61104957  0.46831424     0.11400
H3003       H  0.57842987  0.58945486  0.44560346     0.11500
H3004       H  0.60332118  0.56940832  0.47051683     0.13400
H3005       H  0.59223363  0.54035787  0.47828873     0.09900
H3006       H  0.56822243  0.52151410  0.48825996     0.12000
H3007       H  0.53063171  0.56147253  0.47240833     0.08600
H3008       H  0.55476070  0.58037038  0.46242882     0.11300
C3009       C  0.81110323  0.64279239  0.59886795    -0.03300
C3010       C  0.79303868  0.64407463  0.60280372    -0.05900
C3011       C  0.78727370  0.65148809  0.61867565    -0.20900
C3012       C  0.79931344  0.65812626  0.63104566     0.24800
C3013       C  0.81748928  0.65664933  0.62736917    -0.18500
C3014       C  0.82332566  0.64893347  0.61142879    -0.08500
C3015       C  0.79203282  0.66627060  0.64748285    -0.18800
C3016       C  0.80040397  0.67859572  0.65723906    -0.23600
C3017       C  0.79218345  0.68840843  0.67239301     0.26800
C3018       C  0.80278690  0.70000943  0.68223120    -0.20300
C3019       C  0.79562164  0.71039384  0.69579819    -0.10000
C3020       C  0.77756900  0.70952808  0.69989764    -0.10500
C3021       C  0.76695849  0.69771334  0.69032613    -0.03400
C3022       C  0.77412123  0.68729936  0.67675130    -0.18600
H3023       H  0.78322147  0.63929157  0.59357481     0.10500
H3024       H  0.77323597  0.65230096  0.62116277     0.10600
H3025       H  0.82720103  0.66123753  0.63677492     0.10300
H3026       H  0.83732289  0.64805777  0.60879973     0.11400
H3027       H  0.77868521  0.66257085  0.65083679     0.11500
H3028       H  0.81370232  0.68232384  0.65355097     0.13400
H3029       H  0.81668916  0.70123893  0.67925751     0.09900
H3030       H  0.80423403  0.71930567  0.70291525     0.12000
H3031       H  0.75301830  0.69666026  0.69316260     0.08600
H3032       H  0.76521150  0.67880290  0.66960535     0.11300
C3033       C  0.85349565  0.61098338  0.55968569    -0.03300
C3034       C  0.86929574  0.61684710  0.56737110    -0.05900
C3035       C  0.88533043  0.60851514  0.56318308    -0.20900
C3036       C  0.88572992  0.59384802  0.55174303     0.24800
C3037       C  0.86986290  0.58783632  0.54434806    -0.18500
C3038       C  0.85398703  0.59638596  0.54816075    -0.08500
C3039       C  0.90277439  0.58539132  0.54690343    -0.18800
C3040       C  0.90428681  0.56776602  0.54481497    -0.23600
C3041       C  0.92073316  0.55884140  0.53900235     0.26800
C3042       C  0.92498716  0.54227875  0.54620512    -0.20300
C3043       C  0.93959413  0.53280737  0.54005213    -0.10000
C3044       C  0.94991640  0.53941348  0.52609524    -0.10500
C3045       C  0.94566317  0.55600204  0.51880637    -0.03400
C3046       C  0.93131553  0.56575432  0.52536309    -0.18600
H3047       H  0.86930582  0.62815259  0.57617674     0.10500
H3048       H  0.89742440  0.61346571  0.56892683     0.10600
H3049       H  0.86977286  0.57680681  0.53520024     0.10300
H3050       H  0.84202780  0.59155743  0.54203387     0.11400
H3051       H  0.91432563  0.59371838  0.54546509     0.11500
H3052       H  0.89313199  0.55938571  0.54805303     0.13400
H3053       H  0.91690852  0.53661001  0.55657931     0.09900
H3054       H  0.94248273  0.52000958  0.54583239     0.12000
H3055       H  0.95341158  0.56139252  0.50804155     0.08600
H3056       H  0.92810622  0.57835450  0.51933589     0.11300
C3057       C  0.79500839  0.62858586  0.53773851    -0.03300
C3058       C  0.79858391  0.62124307  0.52099689    -0.05900
C3059       C  0.78577958  0.62151159  0.50764975    -0.20900
C3060       C  0.76909807  0.62891503  0.51080330     0.24800
C3061       C  0.76561315  0.63651177  0.52744401    -0.18500
C3062       C  0.77839495  0.63630753  0.54074135    -0.08500
C3063       C  0.75581680  0.62902010  0.49634937    -0.18800
C3064       C  0.73833790  0.62914186  0.49943584    -0.23600
C3065       C  0.72489890  0.62928828  0.48514441     0.26800
C3066       C  0.70808205  0.62255813  0.48877400    -0.20300
C3067       C  0.69492395  0.62281333  0.47582618    -0.10000
C3068       C  0.69823469  0.63003447  0.45897803    -0.10500
C3069       C  0.71505206  0.63693834  0.45539819    -0.03400
C3070       C  0.72823766  0.63659849  0.46833525    -0.18600
H3071       H  0.81125993  0.61527811  0.51818692     0.10500
H3072       H  0.78884878  0.61575136  0.49487024     0.10600
H3073       H  0.75314136  0.64290191  0.53018090     0.10300
H3074       H  0.77521354  0.64226508  0.55339468     0.11400
H3075       H  0.76062841  0.62809030  0.48283274     0.11500
H3076       H  0.73357289  0.62825049  0.51297365     0.13400
H3077       H  0.70512906  0.61700868  0.50167372     0.09900
H3078       H  0.68211834  0.61745072  0.47909318     0.12000
H3079       H  0.71802945  0.64273864  0.44262481     0.08600
H3080       H  0.74086801  0.64241709  0.46523076     0.11300
C3081       C  0.64853070  0.10510974  0.18517922    -0.03300
C3082       C  0.64484450  0.12069311  0.17571366    -0.05900
C3083       C  0.65363348  0.13647113  0.17991575    -0.20900
C3084       C  0.66613743  0.13691662  0.19366382     0.24800
C3085       C  0.67045243  0.12108740  0.20240060    -0.18500
C3086       C  0.66171970  0.10545274  0.19826600    -0.08500
C3087       C  0.67481831  0.15384620  0.19852906    -0.18800
C3088       C  0.68056982  0.15710967  0.21513880    -0.23600
C3089       C  0.69031947  0.17325394  0.22056139     0.26800
C3090       C  0.69136595  0.17739009  0.23868157    -0.20300
C3091       C  0.70135373  0.19175596  0.24454787    -0.10000
C3092       C  0.71069865  0.20222798  0.23240096    -0.10500
C3093       C  0.70957392  0.19815840  0.21423605    -0.03400
C3094       C  0.69952680  0.18383464  0.20836712    -0.18600
H3095       H  0.63478851  0.12082915  0.16554151     0.10500
H3096       H  0.65031130  0.14845045  0.17276733     0.10600
H3097       H  0.68059871  0.12069336  0.21246418     0.10300
H3098       H  0.66518746  0.09360071  0.20555856     0.11400
H3099       H  0.67589590  0.16394371  0.18837031     0.11500
H3100       H  0.67777179  0.14756066  0.22551539     0.13400
H3101       H  0.68453753  0.16936275  0.24838147     0.09900
H3102       H  0.70196809  0.19447827  0.25862131     0.12000
H3103       H  0.71666053  0.20591658  0.20451337     0.08600
H3104       H  0.69947902  0.18083771  0.19436003     0.11300
C3105       C  0.72338800  0.28954927  0.19945906    -0.03300
C3106       C  0.71745007  0.30709829  0.20112602    -0.05900
C3107       C  0.70933676  0.31573035  0.18683190    -0.20900
C3108       C  0.70691479  0.30709879  0.17050989     0.24800
C3109       C  0.71264314  0.28940772  0.16896461    -0.18500
C3110       C  0.72084650  0.28084090  0.18319811    -0.08500
C3111       C  0.69848397  0.31708286  0.15559029    -0.18800
C3112       C  0.69841627  0.31153815  0.13858750    -0.23600
C3113       C  0.69178008  0.32222336  0.12336269     0.26800
C3114       C  0.69829280  0.31821093  0.10644924    -0.20300
C3115       C  0.69342029  0.32827896  0.09176073    -0.10000
C3116       C  0.68164743  0.34256349  0.09348290    -0.10500
C3117       C  0.67439074  0.34615200  0.11024490    -0.03400
C3118       C  0.67945000  0.33611221  0.12509863    -0.18600
H3119       H  0.71906156  0.31418339  0.21348188     0.10500
H3120       H  0.70500361  0.32929029  0.18852919     0.10600
H3121       H  0.71072570  0.28189659  0.15696477     0.10300
H3122       H  0.72503170  0.26724251  0.18148465     0.11400
H3123       H  0.69307912  0.33002638  0.15866769     0.11500
H3124       H  0.70481813  0.29918005  0.13518518     0.13400
H3125       H  0.70760435  0.30747012  0.10462513     0.09900
H3126       H  0.69908285  0.32494736  0.07901797     0.12000
H3127       H  0.66519854  0.35699780  0.11196209     0.08600
H3128       H  0.67370538  0.33927937  0.13781669     0.11300
C3129       C  0.69971660  0.27840875  0.29348755    -0.03300
C3130       C  0.69316147  0.29565087  0.29094552    -0.05900
C3131       C  0.67972274  0.30235898  0.30176047    -0.20900
C3132       C  0.67244767  0.29205298  0.31538974     0.24800
C3133       C  0.67925188  0.27488018  0.31814088    -0.18500
C3134       C  0.69259591  0.26812460  0.30723082    -0.08500
C3135       C  0.65799657  0.29976229  0.32647718    -0.18800
C3136       C  0.64676029  0.28979853  0.33603231    -0.23600
C3137       C  0.63155888  0.29659261  0.34662893     0.26800
C3138       C  0.61966316  0.28405914  0.35316617    -0.20300
C3139       C  0.60496490  0.28920293  0.36291551    -0.10000
C3140       C  0.60158134  0.30714730  0.36658042    -0.10500
C3141       C  0.61365434  0.31983482  0.36044470    -0.03400
C3142       C  0.62852436  0.31462601  0.35052577    -0.18600
H3143       H  0.69833749  0.30396788  0.28049584     0.10500
H3144       H  0.67488656  0.31563691  0.29936031     0.10600
H3145       H  0.67460135  0.26662346  0.32884166     0.10300
H3146       H  0.69748089  0.25488336  0.30970902     0.11400
H3147       H  0.65611886  0.31396718  0.32592309     0.11500
H3148       H  0.64810508  0.27553754  0.33546525     0.13400
H3149       H  0.62163201  0.27009648  0.35058312     0.09900
H3150       H  0.59617634  0.27893179  0.36753582     0.12000
H3151       H  0.61149396  0.33374339  0.36309236     0.08600
H3152       H  0.63750725  0.32474538  0.34604849     0.11300
C3153       C  0.78802911  0.30805603  0.27273191    -0.03300
C3154       C  0.78150137  0.32532778  0.27059543    -0.05900
C3155       C  0.79148727  0.33990209  0.27583833    -0.20900
C3156       C  0.80817948  0.33766106  0.28352738     0.24800
C3157       C  0.81479545  0.32038237  0.28571053    -0.18500
C3158       C  0.80480993  0.30574394  0.28035352    -0.08500
C3159       C  0.81841040  0.35377990  0.28817240    -0.18800
C3160       C  0.83210728  0.35419594  0.29956142    -0.23600
C3161       C  0.84178095  0.37083895  0.30361328     0.26800
C3162       C  0.84992176  0.37298719  0.32019924    -0.20300
C3163       C  0.85874242  0.38872781  0.32440439    -0.10000
C3164       C  0.85977361  0.40256849  0.31198574    -0.10500
C3165       C  0.85201339  0.40014612  0.29522065    -0.03400
C3166       C  0.84321676  0.38450794  0.29106603    -0.18600
H3167       H  0.76868257  0.32763510  0.26473078     0.10500
H3168       H  0.78611084  0.35304262  0.27385894     0.10600
H3169       H  0.82776974  0.31808915  0.29117224     0.10300
H3170       H  0.81026447  0.29261558  0.28213570     0.11400
H3171       H  0.81385627  0.36611479  0.28237481     0.11500
H3172       H  0.83580886  0.34235097  0.30679241     0.13400
H3173       H  0.84921161  0.36256853  0.33002758     0.09900
H3174       H  0.86468117  0.39006403  0.33737871     0.12000
H3175       H  0.85270232  0.41036070  0.28518480     0.08600
H3176       H  0.83774896  0.38312401  0.27789986     0.11300
C3177       C  0.69060810  0.13398385  0.60605854    -0.03300
C3178       C  0.70811686  0.13271512  0.61196782    -0.05900
C3179       C  0.71339919  0.14082861  0.62768698    -0.20900
C3180       C  0.70144884  0.15071473  0.63784829     0.24800
C3181       C  0.68371267  0.15157158  0.63228192    -0.18500
C3182       C  0.67834281  0.14318260  0.61655754    -0.08500
C3183       C  0.70838261  0.15994839  0.65386736    -0.18800
C3184       C  0.70045540  0.17376670  0.66189959    -0.23600
C3185       C  0.70869360  0.18397932  0.67666001     0.26800
C3186       C  0.69781686  0.19398194  0.68788645    -0.20300
C3187       C  0.70504186  0.20452382  0.70126955    -0.10000
C3188       C  0.72340438  0.20545415  0.70370835    -0.10500
C3189       C  0.73432451  0.19538436  0.69254065    -0.03400
C3190       C  0.72708855  0.18483840  0.67912877    -0.18600
H3191       H  0.71786462  0.12556677  0.60429297     0.10500
H3192       H  0.72707053  0.13975449  0.63167595     0.10600
H3193       H  0.67394988  0.15866519  0.63992818     0.10300
H3194       H  0.66475825  0.14435965  0.61233361     0.11400
H3195       H  0.72112690  0.15556676  0.65869172     0.11500
H3196       H  0.68756861  0.17809163  0.65743846     0.13400
H3197       H  0.68364356  0.19370652  0.68624384     0.09900
H3198       H  0.69619593  0.21206350  0.70963401     0.12000
H3199       H  0.74850840  0.19589320  0.69394543     0.08600
H3200       H  0.73603079  0.17785162  0.67043959     0.11300
C3201       C  0.64771760  0.10749535  0.56356134    -0.03300
C3202       C  0.63507525  0.10345948  0.57656904    -0.05900
C3203       C  0.61908952  0.09540390  0.57181247    -0.20900
C3204       C  0.61554351  0.09109762  0.55403505     0.24800
C3205       C  0.62783686  0.09591025  0.54100512    -0.18500
C3206       C  0.64368336  0.10393641  0.54570461    -0.08500
C3207       C  0.59907537  0.08153810  0.54923971    -0.18800
C3208       C  0.59859950  0.06975463  0.53581249    -0.23600
C3209       C  0.58273669  0.05947503  0.53062708     0.26800
C3210       C  0.58511264  0.04293480  0.52252214    -0.20300
C3211       C  0.57065338  0.03297851  0.51691547    -0.10000
C3212       C  0.55341700  0.03950075  0.51892512    -0.10500
C3213       C  0.55101690  0.05621163  0.52681565    -0.03400
C3214       C  0.56551833  0.06606981  0.53269802    -0.18600
H3215       H  0.63772332  0.10606626  0.59042241     0.10500
H3216       H  0.60971462  0.09203548  0.58208607     0.10600
H3217       H  0.62526339  0.09344922  0.52711453     0.10300
H3218       H  0.65290375  0.10716212  0.53524793     0.11400
H3219       H  0.58754175  0.08340312  0.55754740     0.11500
H3220       H  0.61072942  0.06668205  0.52880991     0.13400
H3221       H  0.59824563  0.03762900  0.52061003     0.09900
H3222       H  0.57300321  0.02021869  0.51083389     0.12000
H3223       H  0.53791341  0.06163351  0.52853889     0.08600
H3224       H  0.56324438  0.07896328  0.53849654     0.11300
C3225       C  0.95288874  0.04019929  0.47119156    -0.03300
C3226       C  0.94943225  0.03948059  0.45288206    -0.05900
C3227       C  0.93589916  0.04965803  0.44537238    -0.20900
C3228       C  0.92546467  0.06088524  0.45588751     0.24800
C3229       C  0.92902726  0.06169876  0.47422719    -0.18500
C3230       C  0.94259521  0.05155355  0.48172336    -0.08500
C3231       C  0.91041645  0.07054354  0.44738085    -0.18800
C3232       C  0.90147496  0.08391586  0.45513767    -0.23600
C3233       C  0.88507057  0.09199636  0.44778627     0.26800
C3234       C  0.87310617  0.09957676  0.45975093    -0.20300
C3235       C  0.85706738  0.10649351  0.45389393    -0.10000
C3236       C  0.85264501  0.10638897  0.43580443    -0.10500
C3237       C  0.86491356  0.09956098  0.42361642    -0.03400
C3238       C  0.88095617  0.09230460  0.42955146    -0.18600
H3239       H  0.95708761  0.03091139  0.44432863     0.10500
H3240       H  0.93346431  0.04861648  0.43126323     0.10600
H3241       H  0.92114483  0.06969738  0.48305230     0.10300
H3242       H  0.94479827  0.05237548  0.49587924     0.11400
H3243       H  0.90623334  0.06596140  0.43441982     0.11500
H3244       H  0.90555011  0.08857903  0.46807504     0.13400
H3245       H  0.87595522  0.09969852  0.47382363     0.09900
H3246       H  0.84798983  0.11178984  0.46362561     0.12000
H3247       H  0.86186417  0.09930716  0.40959840     0.08600
H3248       H  0.89004382  0.08700057  0.41986672     0.11300
C3249       C  0.77510791  0.21433245  0.30363059    -0.03300
C3250       C  0.79271138  0.21625998  0.30911940    -0.05900
C3251       C  0.80003785  0.20484480  0.32175940    -0.20900
C3252       C  0.79010115  0.19102638  0.32909283     0.24800
C3253       C  0.77241520  0.18913953  0.32370164    -0.18500
C3254       C  0.76503574  0.20065838  0.31113239    -0.08500
C3255       C  0.79840413  0.17954290  0.34292156    -0.18800
C3256       C  0.79251599  0.16327444  0.34721841    -0.23600
C3257       C  0.79959871  0.15244319  0.36217044     0.26800
C3258       C  0.78844409  0.13984937  0.36988429    -0.20300
C3259       C  0.79377683  0.13023087  0.38475165    -0.10000
C3260       C  0.81059229  0.13265065  0.39213233    -0.10500
C3261       C  0.82223513  0.14448818  0.38387498    -0.03400
C3262       C  0.81676814  0.15439305  0.36906694    -0.18600
H3263       H  0.80086411  0.22666372  0.30368404     0.10500
H3264       H  0.81359905  0.20677618  0.32576830     0.10600
H3265       H  0.76406064  0.17906587  0.32937696     0.10300
H3266       H  0.75143880  0.19879705  0.30723536     0.11400
H3267       H  0.80967313  0.18491735  0.34990892     0.11500
H3268       H  0.78130992  0.15788642  0.34014798     0.13400
H3269       H  0.77525676  0.13788223  0.36477288     0.09900
H3270       H  0.78454090  0.12111929  0.39074992     0.12000
H3271       H  0.83525550  0.14663990  0.38931103     0.08600
H3272       H  0.82595780  0.16358445  0.36318584     0.11300
C3273       C  0.79005963  0.11369673  0.45062204    -0.03300
C3274       C  0.77271247  0.11820089  0.44584273    -0.05900
C3275       C  0.75913323  0.11755488  0.45832632    -0.20900
C3276       C  0.76256086  0.11256924  0.47590351     0.24800
C3277       C  0.77979505  0.10746689  0.48057139    -0.18500
C3278       C  0.79338587  0.10808131  0.46807563    -0.08500
C3279       C  0.74781751  0.11278986  0.48887717    -0.18800
C3280       C  0.75022815  0.11460344  0.50648441    -0.23600
C3281       C  0.73563450  0.11575368  0.51961485     0.26800
C3282       C  0.73939317  0.12231639  0.53659916    -0.20300
C3283       C  0.72622449  0.12352825  0.54948662    -0.10000
C3284       C  0.70893618  0.11810186  0.54571699    -0.10500
C3285       C  0.70516340  0.11143319  0.52874124    -0.03400
C3286       C  0.71834670  0.11019177  0.51585825    -0.18600
H3287       H  0.76961355  0.12242050  0.43248445     0.10500
H3288       H  0.74594388  0.12131667  0.45430980     0.10600
H3289       H  0.78287014  0.10288632  0.49379448     0.10300
H3290       H  0.80654001  0.10430860  0.47216936     0.11400
H3291       H  0.73458067  0.11266684  0.48349313     0.11500
H3292       H  0.76348841  0.11627741  0.51156485     0.13400
H3293       H  0.75259741  0.12658881  0.53991795     0.09900
H3294       H  0.72963825  0.12867778  0.56242260     0.12000
H3295       H  0.69201929  0.10701838  0.52539964     0.08600
H3296       H  0.71490409  0.10457577  0.50316247     0.11300
C3297       C  0.80173166  0.23046236  0.21458867    -0.03300
C3298       C  0.81881279  0.22985670  0.22174330    -0.05900
C3299       C  0.83288493  0.22325147  0.21179857    -0.20900
C3300       C  0.83030173  0.21696375  0.19449015     0.24800
C3301       C  0.81318301  0.21744678  0.18730418    -0.18500
C3302       C  0.79905988  0.22408176  0.19728139    -0.08500
C3303       C  0.84603114  0.21117087  0.18418459    -0.18800
C3304       C  0.84549104  0.20152390  0.16914279    -0.23600
C3305       C  0.86155188  0.19720947  0.15858538     0.26800
C3306       C  0.86145478  0.18261598  0.14703361    -0.20300
C3307       C  0.87613414  0.17877125  0.13637035    -0.10000
C3308       C  0.89113428  0.18962854  0.13688207    -0.10500
C3309       C  0.89118947  0.20417438  0.14850437    -0.03400
C3310       C  0.87662633  0.20796273  0.15912855    -0.18600
H3311       H  0.82137442  0.23459632  0.23503383     0.10500
H3312       H  0.84591774  0.22316607  0.21765056     0.10600
H3313       H  0.81064504  0.21315886  0.17388456     0.10300
H3314       H  0.78607102  0.22437634  0.19135528     0.11400
H3315       H  0.85874892  0.21488236  0.18956506     0.11500
H3316       H  0.83302861  0.19631912  0.16447417     0.13400
H3317       H  0.84994749  0.17421976  0.14619236     0.09900
H3318       H  0.87558367  0.16755247  0.12747880     0.12000
H3319       H  0.90244885  0.21290412  0.14924864     0.08600
H3320       H  0.87711291  0.21968493  0.16731125     0.11300
C3321       C  0.06694333  0.34653440  0.09411319    -0.03300
C3322       C  0.07737058  0.36140932  0.09794372    -0.05900
C3323       C  0.07399343  0.37769682  0.08962267    -0.20900
C3324       C  0.06005240  0.37946700  0.07748358     0.24800
C3325       C  0.05008582  0.36443311  0.07320680    -0.18500
C3326       C  0.05345026  0.34824890  0.08143135    -0.08500
C3327       C  0.05626077  0.39691450  0.06910397    -0.18800
C3328       C  0.03980334  0.40171771  0.06430572    -0.23600
C3329       C  0.03513093  0.41849282  0.05507777     0.26800
C3330       C  0.01750945  0.42415662  0.05546834    -0.20300
C3331       C  0.01206298  0.43899787  0.04585537    -0.10000
C3332       C  0.02411845  0.44853730  0.03547577    -0.10500
C3333       C  0.04185636  0.44305397  0.03526926    -0.03400
C3334       C  0.04731878  0.42817086  0.04492909    -0.18600
H3335       H  0.08790686  0.36055781  0.10757468     0.10500
H3336       H  0.08203806  0.38903079  0.09295584     0.10600
H3337       H  0.03972020  0.36507576  0.06338421     0.10300
H3338       H  0.04531868  0.33705734  0.07786017     0.11400
H3339       H  0.06709343  0.40611788  0.06750239     0.11500
H3340       H  0.02893179  0.39300863  0.06763601     0.13400
H3341       H  0.00781644  0.41690762  0.06309213     0.09900
H3342       H  0.99832496  0.44283222  0.04636158     0.12000
H3343       H  0.05146897  0.45001996  0.02729884     0.08600
H3344       H  0.06091068  0.42399571  0.04392012     0.11300
C3345       C  0.09933733  0.30735736  0.13625489    -0.03300
C3346       C  0.09731513  0.29399253  0.14905940    -0.05900
C3347       C  0.11076973  0.29012351  0.16102328    -0.20900
C3348       C  0.12678818  0.29925647  0.16043039     0.24800
C3349       C  0.12888229  0.31282446  0.14776478    -0.18500
C3350       C  0.11522358  0.31687596  0.13582671    -0.08500
C3351       C  0.14066804  0.29411790  0.17342824    -0.18800
C3352       C  0.15803997  0.29678932  0.17100632    -0.23600
C3353       C  0.17180503  0.28960121  0.18319034     0.26800
C3354       C  0.18890069  0.28701143  0.17660274    -0.20300
C3355       C  0.20212049  0.27978329  0.18731812    -0.10000
C3356       C  0.19860926  0.27501413  0.20499117    -0.10500
C3357       C  0.18158564  0.27791829  0.21174331    -0.03400
C3358       C  0.16835337  0.28520696  0.20101994    -0.18600
H3359       H  0.08521904  0.28648831  0.14994881     0.10500
H3360       H  0.10870544  0.27972110  0.17067974     0.10600
H3361       H  0.14089475  0.32045258  0.14715064     0.10300
H3362       H  0.11716183  0.32728191  0.12616232     0.11400
H3363       H  0.13636030  0.28641511  0.18475191     0.11500
H3364       H  0.16250201  0.30316853  0.15893176     0.13400
H3365       H  0.19200482  0.29038436  0.16300141     0.09900
H3366       H  0.21511254  0.27789161  0.18170069     0.12000
H3367       H  0.17851217  0.27471626  0.22538742     0.08600
H3368       H  0.15555957  0.28754902  0.20686503     0.11300
C3369       C  0.04433459  0.28742125  0.10877925    -0.03300
C3370       C  0.04677787  0.27050560  0.11614975    -0.05900
C3371       C  0.03343977  0.25785324  0.11522471    -0.20900
C3372       C  0.01726375  0.26189716  0.10722164     0.24800
C3373       C  0.01485012  0.27868102  0.09955802    -0.18500
C3374       C  0.02828788  0.29129277  0.10027366    -0.08500
C3375       C  0.00335504  0.24818838  0.10679931    -0.18800
C3376       C  0.98605883  0.25204120  0.10764207    -0.23600
C3377       C  0.97235388  0.23811814  0.10833717     0.26800
C3378       C  0.95689304  0.24116488  0.11805531    -0.20300
C3379       C  0.94395029  0.22809008  0.11930750    -0.10000
C3380       C  0.94609925  0.21179287  0.11058174    -0.10500
C3381       C  0.96140916  0.20896455  0.10045784    -0.03400
C3382       C  0.97439928  0.22196296  0.09936057    -0.18600
H3383       H  0.05899356  0.26702103  0.12269864     0.10500
H3384       H  0.03564782  0.24494735  0.12107485     0.10600
H3385       H  0.00268008  0.28202061  0.09286204     0.10300
H3386       H  0.02600298  0.30414739  0.09436035     0.11400
H3387       H  0.00756679  0.23445026  0.10717617     0.11500
H3388       H  0.98187542  0.26570340  0.10919397     0.13400
H3389       H  0.95497749  0.25357730  0.12496763     0.09900
H3390       H  0.93229166  0.23075419  0.12713851     0.12000
H3391       H  0.96345556  0.19663823  0.09344273     0.08600
H3392       H  0.98594476  0.21940355  0.09133805     0.11300
C3393       C  0.14744600  0.10323169  0.93508884    -0.03300
C3394       C  0.15014991  0.08898417  0.94670664    -0.05900
C3395       C  0.13650108  0.07737736  0.95067438    -0.20900
C3396       C  0.11966601  0.07990641  0.94348044     0.24800
C3397       C  0.11697340  0.09385310  0.93136950    -0.18500
C3398       C  0.13084340  0.10536566  0.92710449    -0.08500
C3399       C  0.10550198  0.06768050  0.94926769    -0.18800
C3400       C  0.08832103  0.07215348  0.95019474    -0.23600
C3401       C  0.07458744  0.06074936  0.95859876     0.26800
C3402       C  0.05798926  0.06813766  0.96235758    -0.20300
C3403       C  0.04492009  0.05816821  0.97082007    -0.10000
C3404       C  0.04818021  0.04054595  0.97581087    -0.10500
C3405       C  0.06467322  0.03307029  0.97185873    -0.03400
C3406       C  0.07763919  0.04293583  0.96324870    -0.18600
H3407       H  0.16286234  0.08686897  0.95288270     0.10500
H3408       H  0.13899844  0.06664288  0.95986318     0.10600
H3409       H  0.10425684  0.09589189  0.92521670     0.10300
H3410       H  0.12845633  0.11622067  0.91804174     0.11400
H3411       H  0.10991871  0.05518037  0.95468325     0.11500
H3412       H  0.08430862  0.08524692  0.94584196     0.13400
H3413       H  0.05515310  0.08174857  0.95886792     0.09900
H3414       H  0.03229473  0.06429530  0.97351953     0.12000
H3415       H  0.06753649  0.01943679  0.97521969     0.08600
H3416       H  0.08987589  0.03630668  0.96021964     0.11300
C3417       C  0.10959083  0.93557438  0.14697505    -0.03300
C3418       C  0.11215176  0.95280842  0.14053747    -0.05900
C3419       C  0.10515836  0.95795164  0.12422192    -0.20900
C3420       C  0.09498681  0.94617044  0.11423344     0.24800
C3421       C  0.09283954  0.92870461  0.12035680    -0.18500
C3422       C  0.10027533  0.92339322  0.13654782    -0.08500
C3423       C  0.08637637  0.95281285  0.09785935    -0.18800
C3424       C  0.06985797  0.94824542  0.09334095    -0.23600
C3425       C  0.05980404  0.95719426  0.07896405     0.26800
C3426       C  0.04142676  0.95835516  0.08047259    -0.20300
C3427       C  0.03144506  0.96704020  0.06754898    -0.10000
C3428       C  0.03957822  0.97448702  0.05257105    -0.10500
C3429       C  0.05797387  0.97304981  0.05084923    -0.03400
C3430       C  0.06801337  0.96456911  0.06395381    -0.18600
H3431       H  0.11942033  0.96240499  0.14826362     0.10500
H3432       H  0.10710303  0.97141536  0.11972119     0.10600
H3433       H  0.08532930  0.91923866  0.11272331     0.10300
H3434       H  0.09815100  0.91003100  0.14124592     0.11400
H3435       H  0.09288680  0.96343470  0.09074631     0.11500
H3436       H  0.06277220  0.93894588  0.10167849     0.13400
H3437       H  0.03476691  0.95271077  0.09183807     0.09900
H3438       H  0.01728719  0.96769369  0.06917694     0.12000
H3439       H  0.06461035  0.97851278  0.03938992     0.08600
H3440       H  0.08211896  0.96357148  0.06215576     0.11300
C3441       C  0.92502070  0.15318495  0.09359466    -0.03300
C3442       C  0.93263694  0.15465362  0.07670212    -0.05900
C3443       C  0.93791846  0.13963521  0.06739790    -0.20900
C3444       C  0.93613591  0.12278825  0.07490597     0.24800
C3445       C  0.92778876  0.12114471  0.09151082    -0.18500
C3446       C  0.92212348  0.13627603  0.10073060    -0.08500
C3447       C  0.94352586  0.10752571  0.06497671    -0.18800
C3448       C  0.95048155  0.09305623  0.07275100    -0.23600
C3449       C  0.95988683  0.07904140  0.06255744     0.26800
C3450       C  0.96069381  0.06178512  0.06938490    -0.20300
C3451       C  0.96904462  0.04824342  0.05986456    -0.10000
C3452       C  0.97688582  0.05172716  0.04333879    -0.10500
C3453       C  0.97676712  0.06917078  0.03690360    -0.03400
C3454       C  0.96846991  0.08267645  0.04641907    -0.18600
H3455       H  0.93491967  0.16752862  0.07084282     0.10500
H3456       H  0.94411477  0.14125372  0.05456335     0.10600
H3457       H  0.92579074  0.10827342  0.09743960     0.10300
H3458       H  0.91628890  0.13481867  0.11374449     0.11400
H3459       H  0.94440801  0.10898089  0.05069673     0.11500
H3460       H  0.94946223  0.09143929  0.08701129     0.13400
H3461       H  0.95448519  0.05868562  0.08192827     0.09900
H3462       H  0.96895042  0.03496294  0.06523853     0.12000
H3463       H  0.98292462  0.07238515  0.02436599     0.08600
H3464       H  0.96893253  0.09594475  0.04108778     0.11300
C3465       C  0.94990903  0.95997866  0.02838075    -0.03300
C3466       C  0.94454962  0.96210507  0.04611569    -0.05900
C3467       C  0.93131135  0.95145795  0.05334594    -0.20900
C3468       C  0.92305603  0.93838908  0.04310113     0.24800
C3469       C  0.92870956  0.93600170  0.02543130    -0.18500
C3470       C  0.94185278  0.94676249  0.01815637    -0.08500
C3471       C  0.90860076  0.92774511  0.05131920    -0.18800
C3472       C  0.89675653  0.91854351  0.04177198    -0.23600
C3473       C  0.88098272  0.90956542  0.04927292     0.26800
C3474       C  0.86675386  0.90675378  0.03783689    -0.20300
C3475       C  0.85146783  0.89857492  0.04378992    -0.10000
C3476       C  0.84991640  0.89265816  0.06140664    -0.10500
C3477       C  0.86428078  0.89513746  0.07294226    -0.03400
C3478       C  0.87969509  0.90358933  0.06694862    -0.18600
H3479       H  0.95049507  0.97211927  0.05442628     0.10500
H3480       H  0.92737096  0.95358839  0.06698096     0.10600
H3481       H  0.92326842  0.92575690  0.01712093     0.10300
H3482       H  0.94582088  0.94460391  0.00453982     0.11400
H3483       H  0.90693471  0.92862508  0.06557963     0.11500
H3484       H  0.89760920  0.91877108  0.02744356     0.13400
H3485       H  0.86736706  0.91109036  0.02416160     0.09900
H3486       H  0.84085097  0.89681981  0.03437924     0.12000
H3487       H  0.86358445  0.89063038  0.08654564     0.08600
H3488       H  0.89057613  0.90518141  0.07606054     0.11300
C3489       C  0.95601064  0.02311636  0.95462655    -0.03300
C3490       C  0.95123844  0.04110631  0.95476365    -0.05900
C3491       C  0.94057858  0.04818396  0.94141285    -0.20900
C3492       C  0.93470130  0.03757829  0.92738941     0.24800
C3493       C  0.93896803  0.01942317  0.92749249    -0.18500
C3494       C  0.94946255  0.01225842  0.94103024    -0.08500
C3495       C  0.92418563  0.04593391  0.91295609    -0.18800
C3496       C  0.92479619  0.04025782  0.89604205    -0.23600
C3497       C  0.91520190  0.04867001  0.88094872     0.26800
C3498       C  0.92009574  0.04381803  0.86369272    -0.20300
C3499       C  0.91081120  0.05013630  0.84902288    -0.10000
C3500       C  0.89628999  0.06151918  0.85116087    -0.10500
C3501       C  0.89173172  0.06699620  0.86836706    -0.03400
C3502       C  0.90101932  0.06057352  0.88314112    -0.18600
H3503       H  0.95586671  0.04980127  0.96516155     0.10500
H3504       H  0.93730038  0.06213043  0.94179177     0.10600
H3505       H  0.93418836  0.01072557  0.91718229     0.10300
H3506       H  0.95278290  0.99832772  0.94062909     0.11400
H3507       H  0.91690625  0.05784756  0.91621742     0.11500
H3508       H  0.93337737  0.02919459  0.89285241     0.13400
H3509       H  0.93098365  0.03478194  0.86153229     0.09900
H3510       H  0.91480872  0.04574184  0.83596420     0.12000
H3511       H  0.88053574  0.07564287  0.87047375     0.08600
H3512       H  0.89659277  0.06450585  0.89617033     0.11300
C3513       C  0.06214365  0.84942471  0.90055975    -0.03300
C3514       C  0.05070010  0.84757869  0.91509960    -0.05900
C3515       C  0.04420360  0.86234880  0.92399726    -0.20900
C3516       C  0.04895607  0.87945240  0.91874320     0.24800
C3517       C  0.06075767  0.88143970  0.90443093    -0.18500
C3518       C  0.06734614  0.86651849  0.89546690    -0.08500
C3519       C  0.04058684  0.89455522  0.92824086    -0.18800
C3520       C  0.04644528  0.91133843  0.92794164    -0.23600
C3521       C  0.03806087  0.92555630  0.93869905     0.26800
C3522       C  0.04854100  0.93935716  0.94516151    -0.20300
C3523       C  0.04132868  0.95235836  0.95618179    -0.10000
C3524       C  0.02335372  0.95203471  0.96074045    -0.10500
C3525       C  0.01267645  0.93864644  0.95365680    -0.03400
C3526       C  0.01994340  0.92552265  0.94277317    -0.18600
H3527       H  0.04646569  0.83463419  0.91949908     0.10500
H3528       H  0.03520146  0.86036685  0.93496111     0.10600
H3529       H  0.06452096  0.89440251  0.89974780     0.10300
H3530       H  0.07597853  0.86837970  0.88420047     0.11400
H3531       H  0.02946586  0.89139909  0.93671428     0.11500
H3532       H  0.05844932  0.91453639  0.92084974     0.13400
H3533       H  0.06246214  0.93982791  0.94204806     0.09900
H3534       H  0.04988002  0.96264366  0.96120290     0.12000
H3535       H  0.99876076  0.93813792  0.95676125     0.08600
H3536       H  0.01132518  0.91542383  0.93753200     0.11300
loop_ 
_geom_bond_atom_site_label_1 
_geom_bond_atom_site_label_2 
_geom_bond_distance 
_geom_bond_site_symmetry_2 
_ccdc_geom_bond_type 
Zn1           O5   1.961   1_465  S
Zn1           O6   2.033       .  S
Zn1          O10   2.016   1_564  S
Zn1          O17   2.006   1_554  S
Zn2           O5   1.961   1_565  S
Zn2           O7   2.028   1_565  S
Zn2           O9   2.021   1_655  S
Zn2          O13   2.010       .  S
Zn3           O5   1.959   1_556  S
Zn3           O8   2.028   1_655  S
Zn3          O11   2.015   1_556  S
Zn3          O14   2.009       .  S
Zn4           O5   1.979   1_566  S
Zn4          O12   2.048       .  S
Zn4          O15   2.048   1_556  S
Zn4          O16   2.042       .  S
O6           C18   1.275       .  A
O7           C19   1.275       .  A
O8           C20   1.274       .  A
O9           C18   1.275       .  A
O10          C20   1.274       .  A
O11          C19   1.274       .  A
O12          C21   1.277   1_565  A
O13          C22   1.273       .  A
O14          C21   1.273       .  A
O15          C22   1.278       .  A
O16          C23   1.277   1_655  A
O17          C23   1.273       .  A
C18        C3428   1.485       .  S
C19        C3452   1.484       .  S
C20        C3404   1.485       .  S
C21        C3489   1.486       .  S
C22        C3465   1.488       .  S
C23        C3524   1.484       .  S
C24        C3345   1.487       .  S
C24          N25   1.358       .  A
C24          N29   1.365       .  A
N25          C26   1.354       .  A
C26        C3369   1.483       .  S
C26          N27   1.355       .  A
N27          C28   1.360       .  A
C28        C3321   1.489       .  S
C28          N29   1.366       .  A
C30        C3441   1.478       .  S
C30          N31   1.364       .  A
C30          N35   1.357       .  A
N31          C32   1.366       .  A
C32        C3308   1.488       .  S
C32          N33   1.361       .  A
N33          C34   1.355       .  A
C34        C3380   1.483       .  S
C34          N35   1.353       .  A
C36        C3260   1.484       .  S
C36          N37   1.358       .  A
C36          N41   1.367       .  A
N37          C38   1.354       .  A
C38        C3273   1.484       .  S
C38          N39   1.355       .  A
N39          C40   1.360       .  A
C40        C3236   1.486       .  S
C40          N41   1.367       .  A
C42        C3177   1.485       .  S
C42          N43   1.359       .  A
C42          N47   1.366       .  A
N43          C44   1.355       .  A
C44        C3284   1.484       .  S
C44          N45   1.354       .  A
N45          C46   1.359       .  A
C46        C3201   1.488       .  S
C46          N47   1.367       .  A
Zn48         O52   1.964       .  S
Zn48         O53   2.027       .  S
Zn48         O57   2.020       .  S
Zn48         O64   2.021       .  S
Zn49         O52   1.966       .  S
Zn49         O54   2.040       .  S
Zn49         O56   2.027       .  S
Zn49         O60   2.022       .  S
Zn50         O52   1.964       .  S
Zn50         O55   2.026       .  S
Zn50         O58   2.020       .  S
Zn50         O61   2.006       .  S
Zn51         O52   1.973       .  S
Zn51         O59   2.032       .  S
Zn51         O62   2.041       .  S
Zn51         O63   2.045       .  S
O53          C65   1.275       .  A
O54          C66   1.276       .  A
O55          C67   1.275       .  A
O56          C65   1.276       .  A
O57          C67   1.275       .  A
O58          C66   1.274       .  A
O59          C68   1.276       .  A
O60          C69   1.275       .  A
O61          C68   1.273       .  A
O62          C69   1.278       .  A
O63          C70   1.277       .  A
O64          C70   1.274       .  A
C65        C3153   1.486       .  S
C66        C3105   1.489       .  S
C67        C3297   1.486       .  S
C68        C3092   1.483       .  S
C69        C3129   1.488       .  S
C70        C3249   1.490       .  S
C71        C3009   1.486       .  S
C71          N72   1.357       .  A
C71          N76   1.365       .  A
N72          C73   1.353       .  A
C73        C3057   1.484       .  S
C73          N74   1.356       .  A
N74          C75   1.361       .  A
C75        C3033   1.483       .  S
C75          N76   1.367       .  A
C77        C2961   1.485       .  S
C77          N78   1.366       .  A
C77          N82   1.359       .  A
N78          C79   1.366       .  A
C79        C2985   1.490       .  S
C79          N80   1.359       .  A
N80          C81   1.355       .  A
C81        C3068   1.484       .  S
C81          N82   1.354       .  A
Zn83         O87   1.963   1_655  S
Zn83         O88   2.030   1_655  S
Zn83         O92   2.030       .  S
Zn83         O99   2.018       .  S
Zn84         O87   1.964       .  S
Zn84         O89   2.031       .  S
Zn84         O91   2.029       .  S
Zn84         O95   2.009       .  S
Zn85         O87   1.962   1_655  S
Zn85         O90   2.027       .  S
Zn85         O93   2.039   1_655  S
Zn85         O96   2.006       .  S
Zn86         O87   1.982   1_655  S
Zn86         O94   2.044       .  S
Zn86         O97   2.038   1_655  S
Zn86         O98   2.041       .  S
O88         C100   1.276       .  A
O89         C101   1.275       .  A
O90         C102   1.276       .  A
O91         C100   1.276       .  A
O92         C102   1.276       .  A
O93         C101   1.275       .  A
O94         C103   1.277       .  A
O95         C104   1.273       .  A
O96         C103   1.273       .  A
O97         C104   1.277       .  A
O98         C105   1.275       .  A
O99         C105   1.273       .  A
C100       C2865   1.486       .  S
C101       C2889   1.492       .  S
C102       C2948   1.488       .  S
C103       C2913   1.481       .  S
C104       C2841   1.485       .  S
C105       C3044   1.482       .  S
C106       C2769   1.485       .  S
C106        N107   1.360       .  A
C106        N111   1.366       .  A
N107        C108   1.356       .  A
C108       C2828   1.485       .  S
C108        N109   1.355       .  A
N109        C110   1.358       .  A
C110       C2793   1.483       .  S
C110        N111   1.366       .  A
C112       C2721   1.481       .  S
C112        N113   1.367       .  A
C112        N117   1.361       .  A
N113        C114   1.365       .  A
C114       C2756   1.484       .  S
C114        N115   1.356       .  A
N115        C116   1.353       .  A
C116       C2817   1.484       .  S
C116        N117   1.357       .  A
C118       C2660   1.487       .  S
C118        N119   1.358       .  A
C118        N123   1.366       .  A
N119        C120   1.352       .  A
C120       C2697   1.476       .  S
C120        N121   1.353       .  A
N121        C122   1.360       .  A
C122       C2673   1.489       .  S
C122        N123   1.367       .  A
C124       C2636   1.488       .  S
C124        N125   1.365       .  A
C124        N129   1.360       .  A
N125        C126   1.363       .  A
C126       C3417   1.477       .  S
C126        N127   1.358       .  A
N127        C128   1.354       .  A
C128       C2708   1.476       .  S
C128        N129   1.355       .  A
Zn130       O134   1.970       .  S
Zn130       O135   2.029       .  S
Zn130       O139   2.043       .  S
Zn130       O146   2.036       .  S
Zn131       O134   1.979       .  S
Zn131       O136   2.046       .  S
Zn131       O138   2.031       .  S
Zn131       O142   2.051       .  S
Zn132       O134   1.958       .  S
Zn132       O137   2.017       .  S
Zn132       O140   2.015       .  S
Zn132       O143   2.015       .  S
Zn133       O134   1.966       .  S
Zn133       O141   2.034       .  S
Zn133       O144   2.020       .  S
Zn133       O145   2.025       .  S
O135        C147   1.277       .  A
O136        C148   1.277       .  A
O137        C149   1.274       .  A
O138        C147   1.276       .  A
O139        C149   1.276       .  A
O140        C148   1.274       .  A
O141        C150   1.275       .  A
O142        C151   1.278       .  A
O143        C150   1.274       .  A
O144        C151   1.275       .  A
O145        C152   1.275       .  A
O146        C152   1.276       .  A
C147       C2577   1.488       .  S
C148       C2601   1.489       .  S
C149       C2804   1.489       .  S
C150       C2625   1.486       .  S
C151       C2553   1.491       .  S
C152       C2529   1.489       .  S
Zn153       O157   1.973       .  S
Zn153       O158   2.034       .  S
Zn153       O162   2.043       .  S
Zn153       O169   2.040       .  S
Zn154       O157   1.970       .  S
Zn154       O159   2.038       .  S
Zn154       O161   2.015       .  S
Zn154       O165   2.040       .  S
Zn155       O157   1.952       .  S
Zn155       O160   2.005       .  S
Zn155       O163   2.014       .  S
Zn155       O166   2.009       .  S
Zn156       O157   1.962       .  S
Zn156       O164   2.030       .  S
Zn156       O167   2.012       .  S
Zn156       O168   2.009       .  S
O158        C170   1.277       .  A
O159        C171   1.276       .  A
O160        C172   1.272       .  A
O161        C170   1.274       .  A
O162        C172   1.277       .  A
O163        C171   1.274       .  A
O164        C173   1.274       .  A
O165        C174   1.276       .  A
O166        C173   1.274       .  A
O167        C174   1.274       .  A
O168        C175   1.273       .  A
O169        C175   1.277       .  A
C170       C2505   1.485       .  S
C171       C3356   1.487       .  S
C172       C2457   1.486       .  S
C173       C2433   1.484       .  S
C174       C2684   1.487       .  S
C175       C2481   1.486       .  S
C176       C2385   1.486       .  S
C176        N177   1.366       .  A
C176        N181   1.358       .  A
N177        C178   1.366       .  A
C178       C2372   1.487       .  S
C178        N179   1.358       .  A
N179        C180   1.353       .  A
C180       C2409   1.479       .  S
C180        N181   1.353       .  A
C182       C2337   1.481       .  S
C182        N183   1.366       .  A
C182        N187   1.360       .  A
N183        C184   1.366       .  A
C184       C2313   1.485       .  S
C184        N185   1.357       .  A
N185        C186   1.353       .  A
C186       C2420   1.482       .  S
C186        N187   1.356       .  A
Zn188       O192   1.967   1_565  S
Zn188       O193   2.024   1_565  S
Zn188       O197   2.017       .  S
Zn188       O204   2.034       .  S
Zn189       O192   1.966       .  S
Zn189       O194   2.022       .  S
Zn189       O196   2.029       .  S
Zn189       O200   2.033       .  S
Zn190       O192   1.974   1_565  S
Zn190       O195   2.030       .  S
Zn190       O198   2.040   1_565  S
Zn190       O201   2.030       .  S
Zn191       O192   1.966   1_565  S
Zn191       O199   2.020       .  S
Zn191       O202   2.030   1_565  S
Zn191       O203   2.032       .  S
O193        C205   1.275       .  A
O194        C206   1.274       .  A
O195        C207   1.275       .  A
O196        C205   1.276       .  A
O197        C207   1.273       .  A
O198        C206   1.276       .  A
O199        C208   1.275       .  A
O200        C209   1.275       .  A
O201        C208   1.276       .  A
O202        C209   1.276       .  A
O203        C210   1.275       .  A
O204        C210   1.276       .  A
C205       C2300   1.487       .  S
C206       C2241   1.486       .  S
C207       C2228   1.486       .  S
C208       C2396   1.485       .  S
C209       C3212   1.487       .  S
C210       C2265   1.489       .  S
C211       C2156   1.489       .  S
C211        N212   1.368       .  A
C211        N216   1.359       .  A
N212        C213   1.367       .  A
C213       C2180   1.480       .  S
C213        N214   1.358       .  A
N214        C215   1.352       .  A
C215       C2193   1.482       .  S
C215        N216   1.352       .  A
C217       C2516   1.480       .  S
C217        N218   1.357       .  A
C217        N222   1.367       .  A
N218        C219   1.352       .  A
C219       C2204   1.483       .  S
C219        N220   1.355       .  A
N220        C221   1.361       .  A
C221       C2900   1.486       .  S
C221        N222   1.368       .  A
C223       C3140   1.491       .  S
C223        N224   1.357       .  A
C223        N228   1.368       .  A
N224        C225   1.351       .  A
C225       C2121   1.479       .  S
C225        N226   1.353       .  A
N226        C227   1.359       .  A
C227       C2108   1.481       .  S
C227        N228   1.369       .  A
C229       C2289   1.481       .  S
C229        N230   1.357       .  A
C229        N234   1.366       .  A
N230        C231   1.353       .  A
C231       C2132   1.481       .  S
C231        N232   1.353       .  A
N232        C233   1.359       .  A
C233       C2492   1.488       .  S
C233        N234   1.367       .  A
C235       C2036   1.483       .  S
C235        N236   1.358       .  A
C235        N240   1.368       .  A
N236        C237   1.352       .  A
C237       C2073   1.476       .  S
C237        N238   1.352       .  A
N238        C239   1.359       .  A
C239       C2049   1.491       .  S
C239        N240   1.368       .  A
C241       C2012   1.488       .  S
C241        N242   1.358       .  A
C241        N246   1.366       .  A
N242        C243   1.353       .  A
C243       C2084   1.480       .  S
C243        N244   1.353       .  A
N244        C245   1.358       .  A
C245       C1977   1.478       .  S
C245        N246   1.366       .  A
Zn247       O251   1.963       .  S
Zn247       O252   2.014       .  S
Zn247       O256   2.029       .  S
Zn247       O263   2.029       .  S
Zn248       O251   1.981       .  S
Zn248       O253   2.047       .  S
Zn248       O255   2.055       .  S
Zn248       O259   2.042       .  S
Zn249       O251   1.965       .  S
Zn249       O254   2.021       .  S
Zn249       O257   2.012       .  S
Zn249       O260   2.032       .  S
Zn250       O251   1.966       .  S
Zn250       O258   2.031       .  S
Zn250       O261   2.010       .  S
Zn250       O262   2.031       .  S
O252        C264   1.274       .  A
O253        C265   1.278       .  A
O254        C266   1.274       .  A
O255        C264   1.278       .  A
O256        C266   1.275       .  A
O257        C265   1.273       .  A
O258        C267   1.275       .  A
O259        C268   1.277       .  A
O260        C267   1.275       .  A
O261        C268   1.274       .  A
O262        C269   1.275       .  A
O263        C269   1.276       .  A
C264       C2097   1.489       .  S
C265       C2169   1.488       .  S
C266       C2001   1.487       .  S
C267       C2348   1.489       .  S
C268       C1953   1.487       .  S
C269       C2996   1.488       .  S
C270       C2444   1.487       .  S
C270        N271   1.359       .  A
C270        N275   1.365       .  A
N271        C272   1.353       .  A
C272       C1940   1.482       .  S
C272        N273   1.354       .  A
N273        C274   1.359       .  A
C274       C1916   1.485       .  S
C274        N275   1.365       .  A
C276       C3393   1.479       .  S
C276        N277   1.359       .  A
C276        N281   1.362       .  A
N277        C278   1.355       .  A
C278       C1929   1.482       .  S
C278        N279   1.355       .  A
N279        C280   1.358       .  A
C280       C1892   1.477       .  S
C280        N281   1.363       .  A
C282       C1820   1.473       .  S
C282        N283   1.358       .  A
C282        N287   1.362       .  A
N283        C284   1.355       .  A
C284       C1857   1.481       .  S
C284        N285   1.355       .  A
N285        C286   1.358       .  A
C286       C1833   1.482       .  S
C286        N287   1.363       .  A
C288       C1785   1.488       .  S
C288        N289   1.367       .  A
C288        N293   1.360       .  A
N289        C290   1.364       .  A
C290       C2876   1.477       .  S
C290        N291   1.356       .  A
N291        C292   1.352       .  A
C292       C1868   1.479       .  S
C292        N293   1.354       .  A
Zn294       O298   1.986       .  S
Zn294       O299   2.055       .  S
Zn294       O303   2.046       .  S
Zn294       O310   2.063       .  S
Zn295       O298   1.955       .  S
Zn295       O300   2.026       .  S
Zn295       O302   1.997       .  S
Zn295       O306   2.015       .  S
Zn296       O298   1.964       .  S
Zn296       O301   2.003       .  S
Zn296       O304   2.035       .  S
Zn296       O307   2.026       .  S
Zn297       O298   1.960       .  S
Zn297       O305   2.017       .  S
Zn297       O308   2.021       .  S
Zn297       O309   2.007       .  S
O299        C311   1.278       .  A
O300        C312   1.274       .  A
O301        C313   1.274       .  A
O302        C311   1.272       .  A
O303        C313   1.278       .  A
O304        C312   1.275       .  A
O305        C314   1.274       .  A
O306        C315   1.274       .  A
O307        C314   1.274       .  A
O308        C315   1.274       .  A
O309        C316   1.273       .  A
O310        C316   1.279       .  A
C311       C1737   1.487       .  S
C312       C1724   1.488       .  S
C313       C1881   1.482       .  S
C314       C1844   1.485       .  S
C315       C2145   1.483       .  S
C316       C1761   1.492       .  S
Zn317       O321   1.973       .  S
Zn317       O322   2.043       .  S
Zn317       O326   2.037       .  S
Zn317       O333   2.042       .  S
Zn318       O321   1.967   1_545  S
Zn318       O323   2.019   1_554  S
Zn318       O325   2.013       .  S
Zn318       O329   2.036       .  S
Zn319       O321   1.971   1_556  S
Zn319       O324   2.018       .  S
Zn319       O327   2.035   1_565  S
Zn319       O330   2.036       .  S
Zn320       O321   1.958       .  S
Zn320       O328   2.021   1_554  S
Zn320       O331   2.008   1_565  S
Zn320       O332   2.015       .  S
O322        C334   1.277   1_565  A
O323        C335   1.275       .  A
O324        C336   1.274       .  A
O325        C334   1.273       .  A
O326        C336   1.277   1_554  A
O327        C335   1.276       .  A
O328        C337   1.274       .  A
O329        C338   1.275       .  A
O330        C337   1.276       .  A
O331        C338   1.273       .  A
O332        C339   1.274       .  A
O333        C339   1.277       .  A
C334       C1617   1.488       .  S
C335       C1689   1.486       .  S
C336       C1641   1.487       .  S
C337       C1665   1.484       .  S
C338       C1905   1.485       .  S
C339       C2780   1.488       .  S
C340       C3164   1.488       .  S
C340        N341   1.365       .  A
C340        N345   1.360       .  A
N341        C342   1.364       .  A
C342       C2924   1.484       .  S
C342        N343   1.357       .  A
N343        C344   1.354       .  A
C344       C1604   1.482       .  S
C344        N345   1.355       .  A
C346       C1556   1.483       .  S
C346        N347   1.366       .  A
C346        N351   1.358       .  A
N347        C348   1.366       .  A
C348       C1569   1.486       .  S
C348        N349   1.358       .  A
N349        C350   1.352       .  A
C350       C1593   1.479       .  S
C350        N351   1.352       .  A
C352       C3081   1.483       .  S
C352        N353   1.357       .  A
C352        N357   1.366       .  A
N353        C354   1.352       .  A
C354       C1521   1.481       .  S
C354        N355   1.354       .  A
N355        C356   1.360       .  A
C356       C1628   1.488       .  S
C356        N357   1.367       .  A
C358       C2276   1.481       .  S
C358        N359   1.361       .  A
C358        N363   1.366       .  A
N359        C360   1.357       .  A
C360       C1532   1.483       .  S
C360        N361   1.353       .  A
N361        C362   1.356       .  A
C362       C1497   1.488       .  S
C362        N363   1.365       .  A
C364       C2564   1.489       .  S
C364        N365   1.360       .  A
C364        N369   1.367       .  A
N365        C366   1.354       .  A
C366       C1473   1.479       .  S
C366        N367   1.352       .  A
N367        C368   1.357       .  A
C368       C2852   1.483       .  S
C368        N369   1.366       .  A
C370       C1425   1.488       .  S
C370        N371   1.359       .  A
C370        N375   1.367       .  A
N371        C372   1.354       .  A
C372       C1484   1.481       .  S
C372        N373   1.353       .  A
N373        C374   1.358       .  A
C374       C1460   1.480       .  S
C374        N375   1.365       .  A
C376       C1388   1.478       .  S
C376        N377   1.358       .  A
C376        N381   1.367       .  A
N377        C378   1.353       .  A
C378       C1412   1.482       .  S
C378        N379   1.353       .  A
N379        C380   1.359       .  A
C380       C3476   1.490       .  S
C380        N381   1.367       .  A
C382       C1364   1.477       .  S
C382        N383   1.362       .  A
C382        N387   1.358       .  A
N383        C384   1.364       .  A
C384       C1652   1.487       .  S
C384        N385   1.361       .  A
N385        C386   1.357       .  A
C386       C1401   1.483       .  S
C386        N387   1.355       .  A
Zn388       O392   1.955       .  S
Zn388       O393   2.012       .  S
Zn388       O397   2.018       .  S
Zn388       O404   2.015       .  S
Zn389       O392   1.975       .  S
Zn389       O394   2.030       .  S
Zn389       O396   2.043       .  S
Zn389       O400   2.040       .  S
Zn390       O392   1.970       .  S
Zn390       O395   2.035       .  S
Zn390       O398   2.020       .  S
Zn390       O401   2.036       .  S
Zn391       O392   1.961       .  S
Zn391       O399   2.016       .  S
Zn391       O402   2.006       .  S
Zn391       O403   2.027       .  S
O393        C405   1.274       .  A
O394        C406   1.276       .  A
O395        C407   1.276       .  A
O396        C405   1.277       .  A
O397        C407   1.274       .  A
O398        C406   1.274       .  A
O399        C408   1.275       .  A
O400        C409   1.276       .  A
O401        C408   1.276       .  A
O402        C409   1.272       .  A
O403        C410   1.274       .  A
O404        C410   1.274       .  A
C405       C2745   1.488       .  S
C406       C1508   1.486       .  S
C407       C2972   1.483       .  S
C408       C1449   1.485       .  S
C409       C1377   1.477       .  S
C410       C1580   1.485       .  S
C411       C1964   1.486       .  S
C411        N412   1.366       .  A
C411        N416   1.359       .  A
N412        C413   1.365       .  A
C413       C2588   1.485       .  S
C413        N414   1.358       .  A
N414        C415   1.354       .  A
C415       C1329   1.482       .  S
C415        N416   1.354       .  A
C417       C2468   1.485       .  S
C417        N418   1.358       .  A
C417        N422   1.366       .  A
N418        C419   1.353       .  A
C419       C1340   1.482       .  S
C419        N420   1.353       .  A
N420        C421   1.359       .  A
C421       C1316   1.487       .  S
C421        N422   1.367       .  A
Zn423       O427   1.968       .  S
Zn423       O428   2.046       .  S
Zn423       O432   2.026       .  S
Zn423       O439   2.037       .  S
Zn424       O427   1.965       .  S
Zn424       O429   2.031   1_556  S
Zn424       O431   2.023       .  S
Zn424       O435   2.014       .  S
Zn425       O427   1.962   1_554  S
Zn425       O430   2.014       .  S
Zn425       O433   2.013       .  S
Zn425       O436   2.028       .  S
Zn426       O427   1.967       .  S
Zn426       O434   2.034   1_556  S
Zn426       O437   2.021       .  S
Zn426       O438   2.022       .  S
O428        C440   1.277       .  A
O429        C441   1.274       .  A
O430        C442   1.274       .  A
O431        C440   1.274       .  A
O432        C442   1.276   1_556  A
O433        C441   1.273       .  A
O434        C443   1.276       .  A
O435        C444   1.275       .  A
O436        C443   1.275       .  A
O437        C444   1.275       .  A
O438        C445   1.274       .  A
O439        C445   1.277       .  A
C440       C1292   1.491       .  S
C441       C1305   1.484       .  S
C442       C1257   1.483       .  S
C443       C2732   1.489       .  S
C444       C1233   1.480       .  S
C445       C2060   1.489       .  S
Zn446       O450   1.963       .  S
Zn446       O451   2.024       .  S
Zn446       O455   2.029   1_545  S
Zn446       O462   2.008       .  S
Zn447       O450   1.967   1_655  S
Zn447       O452   2.035   1_545  S
Zn447       O454   2.025   1_655  S
Zn447       O458   2.028       .  S
Zn448       O450   1.965   1_665  S
Zn448       O453   2.033   1_655  S
Zn448       O456   2.021       .  S
Zn448       O459   2.011       .  S
Zn449       O450   1.975   1_655  S
Zn449       O457   2.039       .  S
Zn449       O460   2.041       .  S
Zn449       O461   2.048   1_655  S
O451        C463   1.274       .  A
O452        C464   1.276       .  A
O453        C465   1.275       .  A
O454        C463   1.275       .  A
O455        C465   1.275       .  A
O456        C464   1.275       .  A
O457        C466   1.277   1_545  A
O458        C467   1.275       .  A
O459        C466   1.273       .  A
O460        C467   1.277       .  A
O461        C468   1.278       .  A
O462        C468   1.273       .  A
C463       C2649   1.485       .  S
C464       C1436   1.488       .  S
C465       C1196   1.489       .  S
C466       C1209   1.485       .  S
C467       C3225   1.491       .  S
C468       C1172   1.488       .  S
C469       C2612   1.490       .  S
C469        N470   1.369       .  A
C469        N474   1.359       .  A
N470        C471   1.369       .  A
C471       C2217   1.489       .  S
C471        N472   1.358       .  A
N472        C473   1.351       .  A
C473       C1137   1.480       .  S
C473        N474   1.351       .  A
C475       C1113   1.484       .  S
C475        N476   1.357       .  A
C475        N480   1.367       .  A
N476        C477   1.352       .  A
C477       C1148   1.478       .  S
C477        N478   1.353       .  A
N478        C479   1.359       .  A
C479       C1185   1.480       .  S
C479        N480   1.367       .  A
C481       C1772   1.490       .  S
C481        N482   1.369       .  A
C481        N486   1.361       .  A
N482        C483   1.368       .  A
C483       C1281   1.484       .  S
C483        N484   1.357       .  A
N484        C485   1.353       .  A
C485       C1089   1.483       .  S
C485        N486   1.355       .  A
C487       C1065   1.489       .  S
C487        N488   1.359       .  A
C487        N492   1.366       .  A
N488        C489   1.354       .  A
C489       C1100   1.483       .  S
C489        N490   1.354       .  A
N490        C491   1.359       .  A
C491       C1700   1.483       .  S
C491        N492   1.366       .  A
C493       C1161   1.480       .  S
C493        N494   1.357       .  A
C493        N498   1.366       .  A
N494        C495   1.353       .  A
C495       C1041   1.482       .  S
C495        N496   1.354       .  A
N496        C497   1.361       .  A
C497       C1713   1.491       .  S
C497        N498   1.368       .  A
C499       C2937   1.485       .  S
C499        N500   1.360       .  A
C499        N504   1.368       .  A
N500        C501   1.354       .  A
C501       C1052   1.482       .  S
C501        N502   1.351       .  A
N502        C503   1.357       .  A
C503       C1028   1.487       .  S
C503        N504   1.368       .  A
C505       C3116   1.485       .  S
C505        N506   1.366       .  A
C505        N510   1.358       .  A
N506        C507   1.366       .  A
C507       C1268   1.486       .  S
C507        N508   1.358       .  A
N508        C509   1.352       .  A
C509        C993   1.479       .  S
C509        N510   1.353       .  A
C511        C969   1.476       .  S
C511        N512   1.358       .  A
C511        N516   1.367       .  A
N512        C513   1.353       .  A
C513       C1004   1.479       .  S
C513        N514   1.352       .  A
N514        C515   1.357       .  A
C515        C945   1.488       .  S
C515        N516   1.367       .  A
Zn517       O521   1.975       .  S
Zn517       O522   2.043       .  S
Zn517       O526   2.048       .  S
Zn517       O533   2.033       .  S
Zn518       O521   1.960       .  S
Zn518       O523   2.016       .  S
Zn518       O525   2.013       .  S
Zn518       O529   2.017       .  S
Zn519       O521   1.959       .  S
Zn519       O524   2.009       .  S
Zn519       O527   2.023       .  S
Zn519       O530   2.011       .  S
Zn520       O521   1.973       .  S
Zn520       O528   2.042       .  S
Zn520       O531   2.046       .  S
Zn520       O532   2.020       .  S
O522        C534   1.277       .  A
O523        C535   1.274       .  A
O524        C536   1.273       .  A
O525        C534   1.273       .  A
O526        C536   1.277       .  A
O527        C535   1.274       .  A
O528        C537   1.276       .  A
O529        C538   1.274       .  A
O530        C537   1.274       .  A
O531        C538   1.278       .  A
O532        C539   1.275       .  A
O533        C539   1.277       .  A
C534       C1017   1.488       .  S
C535       C1988   1.484       .  S
C536       C3188   1.488       .  S
C537       C1076   1.487       .  S
C538        C980   1.489       .  S
C539        C932   1.483       .  S
C540        C884   1.478       .  S
C540        N541   1.358       .  A
C540        N545   1.366       .  A
N541        C542   1.353       .  A
C542        C897   1.480       .  S
C542        N543   1.353       .  A
N543        C544   1.357       .  A
C544       C3513   1.486       .  S
C544        N545   1.367       .  A
C546        C860   1.484       .  S
C546        N547   1.356       .  A
C546        N551   1.365       .  A
N547        C548   1.352       .  A
C548        C908   1.479       .  S
C548        N549   1.354       .  A
N549        C550   1.359       .  A
C550        C825   1.475       .  S
C550        N551   1.366       .  A
C552        C921   1.473       .  S
C552        N553   1.364       .  A
C552        N557   1.356       .  A
N553        C554   1.365       .  A
C554       C3500   1.487       .  S
C554        N555   1.359       .  A
N555        C556   1.356       .  A
C556        C801   1.479       .  S
C556        N557   1.354       .  A
C558        C777   1.481       .  S
C558        N559   1.364       .  A
C558        N563   1.359       .  A
N559        C560   1.364       .  A
C560       C1220   1.486       .  S
C560        N561   1.358       .  A
N561        C562   1.354       .  A
C562        C812   1.482       .  S
C562        N563   1.356       .  A
Zn564       O568   1.969       .  S
Zn564       O569   2.011       .  S
Zn564       O573   2.032       .  S
Zn564       O580   2.033       .  S
Zn565       O568   1.972       .  S
Zn565       O570   2.040       .  S
Zn565       O572   2.029       .  S
Zn565       O576   2.041       .  S
Zn566       O568   1.958       .  S
Zn566       O571   2.025       .  S
Zn566       O574   2.017       .  S
Zn566       O577   2.016       .  S
Zn567       O568   1.959       .  S
Zn567       O575   2.023       .  S
Zn567       O578   2.012       .  S
Zn567       O579   2.011       .  S
O569        C581   1.274       .  A
O570        C582   1.277       .  A
O571        C583   1.275       .  A
O572        C581   1.276       .  A
O573        C583   1.276       .  A
O574        C582   1.274       .  A
O575        C584   1.274       .  A
O576        C585   1.276       .  A
O577        C584   1.274       .  A
O578        C585   1.273       .  A
O579        C586   1.274       .  A
O580        C586   1.275       .  A
C581       C2361   1.484       .  S
C582       C3020   1.488       .  S
C583        C788   1.485       .  S
C584        C849   1.484       .  S
C585       C2025   1.488       .  S
C586       C1353   1.485       .  S
Zn587       O591   1.964   1_654  S
Zn587       O592   2.026       .  S
Zn587       O596   2.026   1_655  S
Zn587       O603   2.028   1_554  S
Zn588       O591   1.959   1_654  S
Zn588       O593   2.025   1_655  S
Zn588       O595   2.015       .  S
Zn588       O599   2.016   1_554  S
Zn589       O591   1.967       .  S
Zn589       O594   2.023   1_556  S
Zn589       O597   2.032   1_556  S
Zn589       O600   2.026       .  S
Zn590       O591   1.963   1_655  S
Zn590       O598   2.013   1_655  S
Zn590       O601   2.028       .  S
Zn590       O602   2.012       .  S
O592        C604   1.275       .  A
O593        C605   1.275       .  A
O594        C606   1.274       .  A
O595        C604   1.273       .  A
O596        C606   1.275       .  A
O597        C605   1.276       .  A
O598        C607   1.274       .  A
O599        C608   1.274       .  A
O600        C607   1.275       .  A
O601        C608   1.275       .  A
O602        C609   1.273       .  A
O603        C609   1.275       .  A
C604       C1545   1.484       .  S
C605        C753   1.484       .  S
C606       C3332   1.487       .  S
C607       C1809   1.483       .  S
C608        C836   1.485       .  S
C609        C956   1.485       .  S
C610       C1748   1.482       .  S
C610        N611   1.366       .  A
C610        N615   1.356       .  A
N611        C612   1.367       .  A
C612       C2252   1.484       .  S
C612        N613   1.360       .  A
N613        C614   1.355       .  A
C614        C729   1.481       .  S
C614        N615   1.352       .  A
C616        C716   1.484       .  S
C616        N617   1.357       .  A
C616        N621   1.365       .  A
N617        C618   1.353       .  A
C618        C740   1.481       .  S
C618        N619   1.354       .  A
N619        C620   1.359       .  A
C620       C1676   1.483       .  S
C620        N621   1.366       .  A
C622       C2540   1.490       .  S
C622        N623   1.366       .  A
C622        N627   1.358       .  A
N623        C624   1.366       .  A
C624        C764   1.484       .  S
C624        N625   1.359       .  A
N625        C626   1.355       .  A
C626        C692   1.482       .  S
C626        N627   1.354       .  A
C628        C657   1.485       .  S
C628        N629   1.359       .  A
C628        N633   1.364       .  A
N629        C630   1.354       .  A
C630        C681   1.479       .  S
C630        N631   1.353       .  A
N631        C632   1.358       .  A
C632       C1244   1.476       .  S
C632        N633   1.364       .  A
Zn634       O638   1.978       .  S
Zn634       O639   2.044       .  S
Zn634       O643   2.037       .  S
Zn634       O650   2.050       .  S
Zn635       O638   1.954       .  S
Zn635       O640   2.023       .  S
Zn635       O642   1.998       .  S
Zn635       O646   2.012       .  S
Zn636       O638   1.964       .  S
Zn636       O641   2.013       .  S
Zn636       O644   2.035       .  S
Zn636       O647   2.035       .  S
Zn637       O638   1.955       .  S
Zn637       O645   2.010       .  S
Zn637       O648   2.021       .  S
Zn637       O649   2.009       .  S
O639        C651   1.277       .  A
O640        C652   1.274       .  A
O641        C653   1.274       .  A
O642        C651   1.272       .  A
O643        C653   1.277       .  A
O644        C652   1.276       .  A
O645        C654   1.274       .  A
O646        C655   1.273       .  A
O647        C654   1.276       .  A
O648        C655   1.274       .  A
O649        C656   1.273       .  A
O650        C656   1.277       .  A
C651        C705   1.485       .  S
C652        C873   1.488       .  S
C653       C1124   1.485       .  S
C654       C1796   1.485       .  S
C655        C668   1.483       .  S
C656       C2324   1.483       .  S
C657        C658   1.407       .  A
C657        C662   1.406       .  A
C658        C659   1.404       .  A
C658        H671   1.083       .  S
C659        C660   1.406       .  A
C659        H672   1.083       .  S
C660        C661   1.405       .  A
C660        C663   1.487       .  S
C661        C662   1.392       .  A
C661        H673   1.082       .  S
C662        H674   1.083       .  S
C663        C664   1.348       .  D
C663        H675   1.085       .  S
C664        C665   1.485       .  S
C664        H676   1.086       .  S
C665        C666   1.403       .  A
C665        C670   1.408       .  A
C666        C667   1.395       .  A
C666        H677   1.084       .  S
C667        C668   1.405       .  A
C667        H678   1.083       .  S
C668        C669   1.407       .  A
C669        C670   1.401       .  A
C669        H679   1.083       .  S
C670        H680   1.082       .  S
C681        C682   1.405       .  A
C681        C686   1.406       .  A
C682        C683   1.396       .  A
C682        H695   1.083       .  S
C683        C684   1.402       .  A
C683        H696   1.083       .  S
C684        C685   1.407       .  A
C684        C687   1.482       .  S
C685        C686   1.397       .  A
C685        H697   1.082       .  S
C686        H698   1.083       .  S
C687        C688   1.346   1_556  D
C687        H699   1.086       .  S
C688        C689   1.483       .  S
C688        H700   1.086       .  S
C689        C690   1.402       .  A
C689        C694   1.407       .  A
C690        C691   1.397       .  A
C690        H701   1.083       .  S
C691        C692   1.407       .  A
C691        H702   1.083       .  S
C692        C693   1.406       .  A
C693        C694   1.398       .  A
C693        H703   1.083       .  S
C694        H704   1.082       .  S
C705        C706   1.407       .  A
C705        C710   1.405       .  A
C706        C707   1.396       .  A
C706        H719   1.083       .  S
C707        C708   1.402       .  A
C707        H720   1.084       .  S
C708        C709   1.411       .  A
C708        C711   1.490       .  S
C709        C710   1.401       .  A
C709        H721   1.081       .  S
C710        H722   1.083       .  S
C711        C712   1.346       .  D
C711        H723   1.085       .  S
C712        C713   1.487       .  S
C712        H724   1.084       .  S
C713        C714   1.400       .  A
C713        C718   1.411       .  A
C714        C715   1.394       .  A
C714        H725   1.084       .  S
C715        C716   1.407       .  A
C715        H726   1.083       .  S
C716        C717   1.405       .  A
C717        C718   1.404       .  A
C717        H727   1.083       .  S
C718        H728   1.081       .  S
C729        C730   1.407       .  A
C729        C734   1.405       .  A
C730        C731   1.396       .  A
C730        H743   1.083       .  S
C731        C732   1.401       .  A
C731        H744   1.084       .  S
C732        C733   1.407       .  A
C732        C735   1.482       .  S
C733        C734   1.397       .  A
C733        H745   1.082       .  S
C734        H746   1.083       .  S
C735        C736   1.346   1_545  D
C735        H747   1.085       .  S
C736        C737   1.483       .  S
C736        H748   1.086       .  S
C737        C738   1.402       .  A
C737        C742   1.407       .  A
C738        C739   1.395       .  A
C738        H749   1.084       .  S
C739        C740   1.406       .  A
C739        H750   1.083       .  S
C740        C741   1.406       .  A
C741        C742   1.397       .  A
C741        H751   1.083       .  S
C742        H752   1.081       .  S
C753        C754   1.406       .  A
C753        C758   1.407       .  A
C754        C755   1.400       .  A
C754        H767   1.083       .  S
C755        C756   1.403       .  A
C755        H768   1.083       .  S
C756        C757   1.406       .  A
C756        C759   1.486       .  S
C757        C758   1.401       .  A
C757        H769   1.083       .  S
C758        H770   1.083       .  S
C759        C760   1.348       .  D
C759        H771   1.086       .  S
C760        C761   1.488       .  S
C760        H772   1.086       .  S
C761        C762   1.406       .  A
C761        C766   1.405       .  A
C762        C763   1.405       .  A
C762        H773   1.083       .  S
C763        C764   1.405       .  A
C763        H774   1.083       .  S
C764        C765   1.407       .  A
C765        C766   1.396       .  A
C765        H775   1.083       .  S
C766        H776   1.082       .  S
C777        C778   1.405       .  A
C777        C782   1.406       .  A
C778        C779   1.403       .  A
C778        H791   1.083       .  S
C779        C780   1.406       .  A
C779        H792   1.083       .  S
C780        C781   1.405       .  A
C780        C783   1.487       .  S
C781        C782   1.397       .  A
C781        H793   1.082       .  S
C782        H794   1.083       .  S
C783        C784   1.348       .  D
C783        H795   1.086       .  S
C784        C785   1.485       .  S
C784        H796   1.086       .  S
C785        C786   1.403       .  A
C785        C790   1.406       .  A
C786        C787   1.400       .  A
C786        H797   1.083       .  S
C787        C788   1.406       .  A
C787        H798   1.083       .  S
C788        C789   1.406       .  A
C789        C790   1.401       .  A
C789        H799   1.083       .  S
C790        H800   1.083       .  S
C801        C802   1.406       .  A
C801        C806   1.406       .  A
C802        C803   1.397       .  A
C802        H815   1.083       .  S
C803        C804   1.401       .  A
C803        H816   1.083       .  S
C804        C805   1.405       .  A
C804        C807   1.478       .  S
C805        C806   1.397       .  A
C805        H817   1.083       .  S
C806        H818   1.083       .  S
C807        C808   1.344       .  D
C807        H819   1.087       .  S
C808        C809   1.479   1_545  S
C808        H820   1.087       .  S
C809        C810   1.402       .  A
C809        C814   1.404       .  A
C810        C811   1.397       .  A
C810        H821   1.083       .  S
C811        C812   1.406       .  A
C811        H822   1.083       .  S
C812        C813   1.407       .  A
C813        C814   1.397       .  A
C813        H823   1.083       .  S
C814        H824   1.083   1_565  S
C825        C826   1.404       .  A
C825        C830   1.404       .  A
C826        C827   1.394       .  A
C826        H839   1.083       .  S
C827        C828   1.400       .  A
C827        H840   1.084       .  S
C828        C829   1.408       .  A
C828        C831   1.481       .  S
C829        C830   1.404       .  A
C829        H841   1.083       .  S
C830        H842   1.083       .  S
C831        C832   1.344       .  D
C831        H843   1.086       .  S
C832        C833   1.485       .  S
C832        H844   1.087       .  S
C833        C834   1.402       .  A
C833        C838   1.407       .  A
C834        C835   1.397       .  A
C834        H845   1.084       .  S
C835        C836   1.407       .  A
C835        H846   1.083       .  S
C836        C837   1.407       .  A
C837        C838   1.401       .  A
C837        H847   1.083       .  S
C838        H848   1.082       .  S
C849        C850   1.407       .  A
C849        C854   1.405       .  A
C850        C851   1.401       .  A
C850        H863   1.083       .  S
C851        C852   1.403       .  A
C851        H864   1.083       .  S
C852        C853   1.408       .  A
C852        C855   1.488       .  S
C853        C854   1.396       .  A
C853        H865   1.082       .  S
C854        H866   1.083       .  S
C855        C856   1.345       .  D
C855        H867   1.086       .  S
C856        C857   1.483       .  S
C856        H868   1.086       .  S
C857        C858   1.398       .  A
C857        C862   1.410       .  A
C858        C859   1.390       .  A
C858        H869   1.084       .  S
C859        C860   1.407       .  A
C859        H870   1.083       .  S
C860        C861   1.407       .  A
C861        C862   1.407       .  A
C861        H871   1.083       .  S
C862        H872   1.082       .  S
C873        C874   1.408       .  A
C873        C878   1.405       .  A
C874        C875   1.401       .  A
C874        H887   1.083       .  S
C875        C876   1.404       .  A
C875        H888   1.083       .  S
C876        C877   1.410       .  A
C876        C879   1.494       .  S
C877        C878   1.400       .  A
C877        H889   1.081       .  S
C878        H890   1.083       .  S
C879        C880   1.349       .  D
C879        H891   1.085       .  S
C880        C881   1.489       .  S
C880        H892   1.084       .  S
C881        C882   1.402       .  A
C881        C886   1.411       .  A
C882        C883   1.394       .  A
C882        H893   1.083       .  S
C883        C884   1.403       .  A
C883        H894   1.084       .  S
C884        C885   1.404       .  A
C885        C886   1.406       .  A
C885        H895   1.083       .  S
C886        H896   1.082       .  S
C897        C898   1.406       .  A
C897        C902   1.406       .  A
C898        C899   1.398       .  A
C898        H911   1.083       .  S
C899        C900   1.402       .  A
C899        H912   1.083       .  S
C900        C901   1.406       .  A
C900        C903   1.482       .  S
C901        C902   1.395       .  A
C901        H913   1.082       .  S
C902        H914   1.083       .  S
C903        C904   1.346   1_455  D
C903        H915   1.085       .  S
C904        C905   1.481       .  S
C904        H916   1.086       .  S
C905        C906   1.401       .  A
C905        C910   1.407       .  A
C906        C907   1.394       .  A
C906        H917   1.084       .  S
C907        C908   1.406       .  A
C907        H918   1.083       .  S
C908        C909   1.406       .  A
C909        C910   1.399       .  A
C909        H919   1.083       .  S
C910        H920   1.082       .  S
C921        C922   1.404       .  A
C921        C926   1.403       .  A
C922        C923   1.398       .  A
C922        H935   1.083       .  S
C923        C924   1.402       .  A
C923        H936   1.083       .  S
C924        C925   1.408       .  A
C924        C927   1.483       .  S
C925        C926   1.402       .  A
C925        H937   1.083       .  S
C926        H938   1.083       .  S
C927        C928   1.346       .  D
C927        H939   1.086       .  S
C928        C929   1.486       .  S
C928        H940   1.087       .  S
C929        C930   1.404       .  A
C929        C934   1.406       .  A
C930        C931   1.400       .  A
C930        H941   1.083       .  S
C931        C932   1.405       .  A
C931        H942   1.083       .  S
C932        C933   1.407       .  A
C933        C934   1.400       .  A
C933        H943   1.083       .  S
C934        H944   1.082       .  S
C945        C946   1.408       .  A
C945        C950   1.406       .  A
C946        C947   1.392       .  A
C946        H959   1.083       .  S
C947        C948   1.400       .  A
C947        H960   1.084       .  S
C948        C949   1.411       .  A
C948        C951   1.488       .  S
C949        C950   1.407       .  A
C949        H961   1.081       .  S
C950        H962   1.083       .  S
C951        C952   1.346       .  D
C951        H963   1.086       .  S
C952        C953   1.490       .  S
C952        H964   1.085       .  S
C953        C954   1.403       .  A
C953        C958   1.409       .  A
C954        C955   1.399       .  A
C954        H965   1.083       .  S
C955        C956   1.407       .  A
C955        H966   1.083       .  S
C956        C957   1.405       .  A
C957        C958   1.399       .  A
C957        H967   1.083       .  S
C958        H968   1.082       .  S
C969        C970   1.403       .  A
C969        C974   1.404       .  A
C970        C971   1.395       .  A
C970        H983   1.084       .  S
C971        C972   1.402       .  A
C971        H984   1.083       .  S
C972        C973   1.411       .  A
C972        C975   1.489       .  S
C973        C974   1.407       .  A
C973        H985   1.082       .  S
C974        H986   1.083       .  S
C975        C976   1.348       .  D
C975        H987   1.085       .  S
C976        C977   1.493       .  S
C976        H988   1.085       .  S
C977        C978   1.403       .  A
C977        C982   1.410       .  A
C978        C979   1.400       .  A
C978        H989   1.083       .  S
C979        C980   1.408       .  A
C979        H990   1.083       .  S
C980        C981   1.406       .  A
C981        C982   1.401       .  A
C981        H991   1.083       .  S
C982        H992   1.081       .  S
C993        C994   1.407       .  A
C993        C998   1.404       .  A
C994        C995   1.398       .  A
C994       H1007   1.083       .  S
C995        C996   1.402       .  A
C995       H1008   1.083   1_554  S
C996        C997   1.406       .  A
C996        C999   1.481   1_554  S
C997        C998   1.395       .  A
C997       H1009   1.082       .  S
C998       H1010   1.083       .  S
C999       C1000   1.345       .  D
C999       H1011   1.086       .  S
C1000      C1001   1.480       .  S
C1000      H1012   1.086   1_556  S
C1001      C1002   1.401       .  A
C1001      C1006   1.407       .  A
C1002      C1003   1.394       .  A
C1002      H1013   1.084       .  S
C1003      C1004   1.405       .  A
C1003      H1014   1.083       .  S
C1004      C1005   1.406       .  A
C1005      C1006   1.399       .  A
C1005      H1015   1.083       .  S
C1006      H1016   1.082       .  S
C1017      C1018   1.405       .  A
C1017      C1022   1.409       .  A
C1018      C1019   1.400       .  A
C1018      H1031   1.083       .  S
C1019      C1020   1.406       .  A
C1019      H1032   1.084       .  S
C1020      C1021   1.407       .  A
C1020      C1023   1.491       .  S
C1021      C1022   1.401       .  A
C1021      H1033   1.081       .  S
C1022      H1034   1.083       .  S
C1023      C1024   1.353       .  D
C1023      H1035   1.086       .  S
C1024      C1025   1.492       .  S
C1024      H1036   1.085       .  S
C1025      C1026   1.408       .  A
C1025      C1030   1.404       .  A
C1026      C1027   1.407       .  A
C1026      H1037   1.083       .  S
C1027      C1028   1.406       .  A
C1027      H1038   1.083       .  S
C1028      C1029   1.408       .  A
C1029      C1030   1.393       .  A
C1029      H1039   1.083       .  S
C1030      H1040   1.082       .  S
C1041      C1042   1.406       .  A
C1041      C1046   1.407       .  A
C1042      C1043   1.398       .  A
C1042      H1055   1.083       .  S
C1043      C1044   1.403       .  A
C1043      H1056   1.083       .  S
C1044      C1045   1.406       .  A
C1044      C1047   1.482   1_455  S
C1045      C1046   1.397       .  A
C1045      H1057   1.082   1_455  S
C1046      H1058   1.083       .  S
C1047      C1048   1.345       .  D
C1047      H1059   1.087   1_655  S
C1048      C1049   1.481       .  S
C1048      H1060   1.086       .  S
C1049      C1050   1.401       .  A
C1049      C1054   1.406       .  A
C1050      C1051   1.396       .  A
C1050      H1061   1.084       .  S
C1051      C1052   1.407       .  A
C1051      H1062   1.083       .  S
C1052      C1053   1.406       .  A
C1053      C1054   1.398       .  A
C1053      H1063   1.083       .  S
C1054      H1064   1.082       .  S
C1065      C1066   1.407       .  A
C1065      C1070   1.408       .  A
C1066      C1067   1.406       .  A
C1066      H1079   1.083       .  S
C1067      C1068   1.407       .  A
C1067      H1080   1.083       .  S
C1068      C1069   1.405       .  A
C1068      C1071   1.491       .  S
C1069      C1070   1.393       .  A
C1069      H1081   1.082       .  S
C1070      H1082   1.083       .  S
C1071      C1072   1.350       .  D
C1071      H1083   1.085       .  S
C1072      C1073   1.488       .  S
C1072      H1084   1.086       .  S
C1073      C1074   1.403       .  A
C1073      C1078   1.408       .  A
C1074      C1075   1.396       .  A
C1074      H1085   1.084       .  S
C1075      C1076   1.406       .  A
C1075      H1086   1.083       .  S
C1076      C1077   1.408       .  A
C1077      C1078   1.405       .  A
C1077      H1087   1.083       .  S
C1078      H1088   1.081       .  S
C1089      C1090   1.407       .  A
C1089      C1094   1.406       .  A
C1090      C1091   1.396       .  A
C1090      H1103   1.083       .  S
C1091      C1092   1.401       .  A
C1091      H1104   1.083       .  S
C1092      C1093   1.407       .  A
C1092      C1095   1.483       .  S
C1093      C1094   1.399       .  A
C1093      H1105   1.082       .  S
C1094      H1106   1.083       .  S
C1095      C1096   1.346       .  D
C1095      H1107   1.085       .  S
C1096      C1097   1.485       .  S
C1096      H1108   1.086       .  S
C1097      C1098   1.403       .  A
C1097      C1102   1.407       .  A
C1098      C1099   1.397       .  A
C1098      H1109   1.083       .  S
C1099      C1100   1.406       .  A
C1099      H1110   1.083       .  S
C1100      C1101   1.407       .  A
C1101      C1102   1.398       .  A
C1101      H1111   1.083       .  S
C1102      H1112   1.082       .  S
C1113      C1114   1.406       .  A
C1113      C1118   1.405       .  A
C1114      C1115   1.393       .  A
C1114      H1127   1.083       .  S
C1115      C1116   1.401       .  A
C1115      H1128   1.084       .  S
C1116      C1117   1.412       .  A
C1116      C1119   1.491       .  S
C1117      C1118   1.406       .  A
C1117      H1129   1.080       .  S
C1118      H1130   1.083       .  S
C1119      C1120   1.347       .  D
C1119      H1131   1.086       .  S
C1120      C1121   1.489       .  S
C1120      H1132   1.084       .  S
C1121      C1122   1.402       .  A
C1121      C1126   1.409       .  A
C1122      C1123   1.398       .  A
C1122      H1133   1.083       .  S
C1123      C1124   1.408       .  A
C1123      H1134   1.083       .  S
C1124      C1125   1.405       .  A
C1125      C1126   1.401       .  A
C1125      H1135   1.083       .  S
C1126      H1136   1.082       .  S
C1137      C1138   1.406       .  A
C1137      C1142   1.406       .  A
C1138      C1139   1.397       .  A
C1138      H1151   1.083       .  S
C1139      C1140   1.402       .  A
C1139      H1152   1.084       .  S
C1140      C1141   1.406       .  A
C1140      C1143   1.481       .  S
C1141      C1142   1.396       .  A
C1141      H1153   1.082       .  S
C1142      H1154   1.083       .  S
C1143      C1144   1.345       .  D
C1143      H1155   1.086       .  S
C1144      C1145   1.480       .  S
C1144      H1156   1.086       .  S
C1145      C1146   1.401       .  A
C1145      C1150   1.406       .  A
C1146      C1147   1.396       .  A
C1146      H1157   1.084       .  S
C1147      C1148   1.406       .  A
C1147      H1158   1.083       .  S
C1148      C1149   1.405       .  A
C1149      C1150   1.397       .  A
C1149      H1159   1.083       .  S
C1150      H1160   1.082       .  S
C1161      C1162   1.404       .  A
C1161      C1166   1.405       .  A
C1162      C1163   1.394       .  A
C1162      H1175   1.084       .  S
C1163      C1164   1.402       .  A
C1163      H1176   1.084       .  S
C1164      C1165   1.412       .  A
C1164      C1167   1.490       .  S
C1165      C1166   1.407       .  A
C1165      H1177   1.082       .  S
C1166      H1178   1.083       .  S
C1167      C1168   1.348       .  D
C1167      H1179   1.085       .  S
C1168      C1169   1.492       .  S
C1168      H1180   1.085       .  S
C1169      C1170   1.402       .  A
C1169      C1174   1.410       .  A
C1170      C1171   1.400       .  A
C1170      H1181   1.084       .  S
C1171      C1172   1.409       .  A
C1171      H1182   1.083       .  S
C1172      C1173   1.405       .  A
C1173      C1174   1.401       .  A
C1173      H1183   1.083       .  S
C1174      H1184   1.081       .  S
C1185      C1186   1.404       .  A
C1185      C1190   1.405       .  A
C1186      C1187   1.395       .  A
C1186      H1199   1.084       .  S
C1187      C1188   1.402       .  A
C1187      H1200   1.083       .  S
C1188      C1189   1.411       .  A
C1188      C1191   1.490       .  S
C1189      C1190   1.406       .  A
C1189      H1201   1.082       .  S
C1190      H1202   1.083       .  S
C1191      C1192   1.349       .  D
C1191      H1203   1.085       .  S
C1192      C1193   1.493       .  S
C1192      H1204   1.085       .  S
C1193      C1194   1.405       .  A
C1193      C1198   1.409       .  A
C1194      C1195   1.402       .  A
C1194      H1205   1.083       .  S
C1195      C1196   1.408       .  A
C1195      H1206   1.083       .  S
C1196      C1197   1.406       .  A
C1197      C1198   1.399       .  A
C1197      H1207   1.083       .  S
C1198      H1208   1.081       .  S
C1209      C1210   1.405       .  A
C1209      C1214   1.408       .  A
C1210      C1211   1.399       .  A
C1210      H1223   1.083   1_565  S
C1211      C1212   1.405       .  A
C1211      H1224   1.083       .  S
C1212      C1213   1.407       .  A
C1212      C1215   1.488       .  S
C1213      C1214   1.399       .  A
C1213      H1225   1.081       .  S
C1214      H1226   1.083       .  S
C1215      C1216   1.350       .  D
C1215      H1227   1.086       .  S
C1216      C1217   1.489       .  S
C1216      H1228   1.085       .  S
C1217      C1218   1.406       .  A
C1217      C1222   1.405       .  A
C1218      C1219   1.404       .  A
C1218      H1229   1.083       .  S
C1219      C1220   1.407       .  A
C1219      H1230   1.083       .  S
C1220      C1221   1.407       .  A
C1221      C1222   1.394       .  A
C1221      H1231   1.083       .  S
C1222      H1232   1.082       .  S
C1233      C1234   1.406       .  A
C1233      C1238   1.404       .  A
C1234      C1235   1.400       .  A
C1234      H1247   1.083       .  S
C1235      C1236   1.403       .  A
C1235      H1248   1.083       .  S
C1236      C1237   1.408       .  A
C1236      C1239   1.487       .  S
C1237      C1238   1.395       .  A
C1237      H1249   1.081       .  S
C1238      H1250   1.083       .  S
C1239      C1240   1.346       .  D
C1239      H1251   1.085       .  S
C1240      C1241   1.483       .  S
C1240      H1252   1.085       .  S
C1241      C1242   1.401       .  A
C1241      C1246   1.409       .  A
C1242      C1243   1.392       .  A
C1242      H1253   1.084       .  S
C1243      C1244   1.404       .  A
C1243      H1254   1.083       .  S
C1244      C1245   1.404       .  A
C1245      C1246   1.404       .  A
C1245      H1255   1.083       .  S
C1246      H1256   1.082       .  S
C1257      C1258   1.404       .  A
C1257      C1262   1.407       .  A
C1258      C1259   1.396       .  A
C1258      H1271   1.083   1_554  S
C1259      C1260   1.405       .  A
C1259      H1272   1.083       .  S
C1260      C1261   1.408       .  A
C1260      C1263   1.489       .  S
C1261      C1262   1.401       .  A
C1261      H1273   1.080       .  S
C1262      H1274   1.083       .  S
C1263      C1264   1.350       .  D
C1263      H1275   1.086       .  S
C1264      C1265   1.489       .  S
C1264      H1276   1.084       .  S
C1265      C1266   1.406       .  A
C1265      C1270   1.405       .  A
C1266      C1267   1.405       .  A
C1266      H1277   1.083       .  S
C1267      C1268   1.407       .  A
C1267      H1278   1.083       .  S
C1268      C1269   1.407       .  A
C1269      C1270   1.392       .  A
C1269      H1279   1.083       .  S
C1270      H1280   1.082       .  S
C1281      C1282   1.406       .  A
C1281      C1286   1.405       .  A
C1282      C1283   1.395       .  A
C1282      H1295   1.083       .  S
C1283      C1284   1.402       .  A
C1283      H1296   1.084       .  S
C1284      C1285   1.412       .  A
C1284      C1287   1.494       .  S
C1285      C1286   1.408       .  A
C1285      H1297   1.081       .  S
C1286      H1298   1.083       .  S
C1287      C1288   1.349       .  D
C1287      H1299   1.085       .  S
C1288      C1289   1.496       .  S
C1288      H1300   1.085       .  S
C1289      C1290   1.404       .  A
C1289      C1294   1.411       .  A
C1290      C1291   1.401       .  A
C1290      H1301   1.083       .  S
C1291      C1292   1.407       .  A
C1291      H1302   1.083       .  S
C1292      C1293   1.406       .  A
C1293      C1294   1.403       .  A
C1293      H1303   1.083       .  S
C1294      H1304   1.081       .  S
C1305      C1306   1.405       .  A
C1305      C1310   1.407       .  A
C1306      C1307   1.396       .  A
C1306      H1319   1.083       .  S
C1307      C1308   1.403       .  A
C1307      H1320   1.084       .  S
C1308      C1309   1.408       .  A
C1308      C1311   1.486       .  S
C1309      C1310   1.403       .  A
C1309      H1321   1.082       .  S
C1310      H1322   1.083       .  S
C1311      C1312   1.349       .  D
C1311      H1323   1.086       .  S
C1312      C1313   1.489       .  S
C1312      H1324   1.085       .  S
C1313      C1314   1.406       .  A
C1313      C1318   1.404       .  A
C1314      C1315   1.406       .  A
C1314      H1325   1.083       .  S
C1315      C1316   1.407       .  A
C1315      H1326   1.083       .  S
C1316      C1317   1.407       .  A
C1317      C1318   1.393       .  A
C1317      H1327   1.083       .  S
C1318      H1328   1.082       .  S
C1329      C1330   1.406       .  A
C1329      C1334   1.406       .  A
C1330      C1331   1.396       .  A
C1330      H1343   1.083       .  S
C1331      C1332   1.402       .  A
C1331      H1344   1.083       .  S
C1332      C1333   1.407       .  A
C1332      C1335   1.485       .  S
C1333      C1334   1.398       .  A
C1333      H1345   1.081       .  S
C1334      H1346   1.083       .  S
C1335      C1336   1.347       .  D
C1335      H1347   1.085       .  S
C1336      C1337   1.486       .  S
C1336      H1348   1.085       .  S
C1337      C1338   1.403       .  A
C1337      C1342   1.408       .  A
C1338      C1339   1.397       .  A
C1338      H1349   1.083       .  S
C1339      C1340   1.406       .  A
C1339      H1350   1.083       .  S
C1340      C1341   1.406       .  A
C1341      C1342   1.397       .  A
C1341      H1351   1.083       .  S
C1342      H1352   1.081       .  S
C1353      C1354   1.407       .  A
C1353      C1358   1.405       .  A
C1354      C1355   1.402       .  A
C1354      H1367   1.083       .  S
C1355      C1356   1.405       .  A
C1355      H1368   1.083       .  S
C1356      C1357   1.409       .  A
C1356      C1359   1.492       .  S
C1357      C1358   1.396       .  A
C1357      H1369   1.080       .  S
C1358      H1370   1.083       .  S
C1359      C1360   1.348       .  D
C1359      H1371   1.086       .  S
C1360      C1361   1.483       .  S
C1360      H1372   1.084       .  S
C1361      C1362   1.401       .  A
C1361      C1366   1.408       .  A
C1362      C1363   1.394       .  A
C1362      H1373   1.084       .  S
C1363      C1364   1.403       .  A
C1363      H1374   1.083       .  S
C1364      C1365   1.405       .  A
C1365      C1366   1.404       .  A
C1365      H1375   1.083       .  S
C1366      H1376   1.082       .  S
C1377      C1378   1.404       .  A
C1377      C1382   1.404       .  A
C1378      C1379   1.397       .  A
C1378      H1391   1.083       .  S
C1379      C1380   1.402       .  A
C1379      H1392   1.083       .  S
C1380      C1381   1.408       .  A
C1380      C1383   1.483       .  S
C1381      C1382   1.403       .  A
C1381      H1393   1.083       .  S
C1382      H1394   1.083       .  S
C1383      C1384   1.347       .  D
C1383      H1395   1.086       .  S
C1384      C1385   1.487       .  S
C1384      H1396   1.086       .  S
C1385      C1386   1.407       .  A
C1385      C1390   1.405       .  A
C1386      C1387   1.405       .  A
C1386      H1397   1.083       .  S
C1387      C1388   1.403       .  A
C1387      H1398   1.083       .  S
C1388      C1389   1.405       .  A
C1389      C1390   1.394       .  A
C1389      H1399   1.084       .  S
C1390      H1400   1.082       .  S
C1401      C1402   1.406       .  A
C1401      C1406   1.406       .  A
C1402      C1403   1.397       .  A
C1402      H1415   1.083       .  S
C1403      C1404   1.402       .  A
C1403      H1416   1.084       .  S
C1404      C1405   1.407       .  A
C1404      C1407   1.484       .  S
C1405      C1406   1.399       .  A
C1405      H1417   1.082       .  S
C1406      H1418   1.083       .  S
C1407      C1408   1.347   1_556  D
C1407      H1419   1.086       .  S
C1408      C1409   1.485       .  S
C1408      H1420   1.086       .  S
C1409      C1410   1.403       .  A
C1409      C1414   1.407       .  A
C1410      C1411   1.398       .  A
C1410      H1421   1.083       .  S
C1411      C1412   1.406       .  A
C1411      H1422   1.083       .  S
C1412      C1413   1.406       .  A
C1413      C1414   1.397       .  A
C1413      H1423   1.083       .  S
C1414      H1424   1.082       .  S
C1425      C1426   1.405       .  A
C1425      C1430   1.408       .  A
C1426      C1427   1.404       .  A
C1426      H1439   1.083       .  S
C1427      C1428   1.407       .  A
C1427      H1440   1.083       .  S
C1428      C1429   1.406       .  A
C1428      C1431   1.493       .  S
C1429      C1430   1.395       .  A
C1429      H1441   1.081       .  S
C1430      H1442   1.083       .  S
C1431      C1432   1.350       .  D
C1431      H1443   1.085       .  S
C1432      C1433   1.491       .  S
C1432      H1444   1.085       .  S
C1433      C1434   1.404       .  A
C1433      C1438   1.409       .  A
C1434      C1435   1.398       .  A
C1434      H1445   1.084       .  S
C1435      C1436   1.406       .  A
C1435      H1446   1.083       .  S
C1436      C1437   1.407       .  A
C1437      C1438   1.402       .  A
C1437      H1447   1.083       .  S
C1438      H1448   1.081       .  S
C1449      C1450   1.406       .  A
C1449      C1454   1.405       .  A
C1450      C1451   1.402       .  A
C1450      H1463   1.083       .  S
C1451      C1452   1.406       .  A
C1451      H1464   1.083       .  S
C1452      C1453   1.410       .  A
C1452      C1455   1.496       .  S
C1453      C1454   1.397       .  A
C1453      H1465   1.080       .  S
C1454      H1466   1.083       .  S
C1455      C1456   1.349       .  D
C1455      H1467   1.085       .  S
C1456      C1457   1.489       .  S
C1456      H1468   1.083       .  S
C1457      C1458   1.402       .  A
C1457      C1462   1.411       .  A
C1458      C1459   1.392       .  A
C1458      H1469   1.084       .  S
C1459      C1460   1.403       .  A
C1459      H1470   1.083       .  S
C1460      C1461   1.405       .  A
C1461      C1462   1.407       .  A
C1461      H1471   1.083       .  S
C1462      H1472   1.081       .  S
C1473      C1474   1.405       .  A
C1473      C1478   1.406       .  A
C1474      C1475   1.397       .  A
C1474      H1487   1.083       .  S
C1475      C1476   1.403       .  A
C1475      H1488   1.083       .  S
C1476      C1477   1.407       .  A
C1476      C1479   1.482       .  S
C1477      C1478   1.397       .  A
C1477      H1489   1.082   1_455  S
C1478      H1490   1.083       .  S
C1479      C1480   1.347   1_455  D
C1479      H1491   1.085       .  S
C1480      C1481   1.484       .  S
C1480      H1492   1.086       .  S
C1481      C1482   1.403       .  A
C1481      C1486   1.407       .  A
C1482      C1483   1.397       .  A
C1482      H1493   1.083       .  S
C1483      C1484   1.406       .  A
C1483      H1494   1.083       .  S
C1484      C1485   1.406       .  A
C1485      C1486   1.396       .  A
C1485      H1495   1.083       .  S
C1486      H1496   1.081       .  S
C1497      C1498   1.405       .  A
C1497      C1502   1.408       .  A
C1498      C1499   1.404       .  A
C1498      H1511   1.082       .  S
C1499      C1500   1.408       .  A
C1499      H1512   1.083       .  S
C1500      C1501   1.406       .  A
C1500      C1503   1.494       .  S
C1501      C1502   1.394       .  A
C1501      H1513   1.080       .  S
C1502      H1514   1.083       .  S
C1503      C1504   1.352       .  D
C1503      H1515   1.083       .  S
C1504      C1505   1.494       .  S
C1504      H1516   1.084       .  S
C1505      C1506   1.406       .  A
C1505      C1510   1.409       .  A
C1506      C1507   1.399       .  A
C1506      H1517   1.084       .  S
C1507      C1508   1.405       .  A
C1507      H1518   1.083       .  S
C1508      C1509   1.407       .  A
C1509      C1510   1.400       .  A
C1509      H1519   1.083       .  S
C1510      H1520   1.079       .  S
C1521      C1522   1.407       .  A
C1521      C1526   1.405       .  A
C1522      C1523   1.396       .  A
C1522      H1535   1.083       .  S
C1523      C1524   1.401       .  A
C1523      H1536   1.084       .  S
C1524      C1525   1.407       .  A
C1524      C1527   1.482       .  S
C1525      C1526   1.397       .  A
C1525      H1537   1.082       .  S
C1526      H1538   1.083       .  S
C1527      C1528   1.344   1_545  D
C1527      H1539   1.086       .  S
C1528      C1529   1.482       .  S
C1528      H1540   1.086       .  S
C1529      C1530   1.400       .  A
C1529      C1534   1.408       .  A
C1530      C1531   1.394       .  A
C1530      H1541   1.084       .  S
C1531      C1532   1.407       .  A
C1531      H1542   1.083       .  S
C1532      C1533   1.406       .  A
C1533      C1534   1.400       .  A
C1533      H1543   1.083       .  S
C1534      H1544   1.082   1_565  S
C1545      C1546   1.405       .  A
C1545      C1550   1.408       .  A
C1546      C1547   1.397       .  A
C1546      H1559   1.083       .  S
C1547      C1548   1.405       .  A
C1547      H1560   1.084       .  S
C1548      C1549   1.407       .  A
C1548      C1551   1.488       .  S
C1549      C1550   1.400       .  A
C1549      H1561   1.081       .  S
C1550      H1562   1.083       .  S
C1551      C1552   1.350       .  D
C1551      H1563   1.086       .  S
C1552      C1553   1.489       .  S
C1552      H1564   1.085       .  S
C1553      C1554   1.407       .  A
C1553      C1558   1.405       .  A
C1554      C1555   1.405       .  A
C1554      H1565   1.083       .  S
C1555      C1556   1.405       .  A
C1555      H1566   1.083       .  S
C1556      C1557   1.406       .  A
C1557      C1558   1.393       .  A
C1557      H1567   1.083       .  S
C1558      H1568   1.082       .  S
C1569      C1570   1.407       .  A
C1569      C1574   1.407       .  A
C1570      C1571   1.406       .  A
C1570      H1583   1.083       .  S
C1571      C1572   1.407       .  A
C1571      H1584   1.083       .  S
C1572      C1573   1.404       .  A
C1572      C1575   1.488       .  S
C1573      C1574   1.392       .  A
C1573      H1585   1.082       .  S
C1574      H1586   1.083       .  S
C1575      C1576   1.349       .  D
C1575      H1587   1.086       .  S
C1576      C1577   1.484       .  S
C1576      H1588   1.086       .  S
C1577      C1578   1.402       .  A
C1577      C1582   1.407       .  A
C1578      C1579   1.396       .  A
C1578      H1589   1.084       .  S
C1579      C1580   1.405       .  A
C1579      H1590   1.083       .  S
C1580      C1581   1.408       .  A
C1581      C1582   1.403       .  A
C1581      H1591   1.083       .  S
C1582      H1592   1.082       .  S
C1593      C1594   1.405       .  A
C1593      C1598   1.405       .  A
C1594      C1595   1.397       .  A
C1594      H1607   1.083       .  S
C1595      C1596   1.402       .  A
C1595      H1608   1.083       .  S
C1596      C1597   1.407       .  A
C1596      C1599   1.483       .  S
C1597      C1598   1.396       .  A
C1597      H1609   1.082       .  S
C1598      H1610   1.083       .  S
C1599      C1600   1.346       .  D
C1599      H1611   1.085       .  S
C1600      C1601   1.484       .  S
C1600      H1612   1.085       .  S
C1601      C1602   1.402       .  A
C1601      C1606   1.408       .  A
C1602      C1603   1.396       .  A
C1602      H1613   1.083       .  S
C1603      C1604   1.406       .  A
C1603      H1614   1.083       .  S
C1604      C1605   1.406       .  A
C1605      C1606   1.398       .  A
C1605      H1615   1.083       .  S
C1606      H1616   1.081       .  S
C1617      C1618   1.405       .  A
C1617      C1622   1.408       .  A
C1618      C1619   1.401       .  A
C1618      H1631   1.083   1_545  S
C1619      C1620   1.406       .  A
C1619      H1632   1.084       .  S
C1620      C1621   1.407       .  A
C1620      C1623   1.492       .  S
C1621      C1622   1.400       .  A
C1621      H1633   1.080       .  S
C1622      H1634   1.083       .  S
C1623      C1624   1.352       .  D
C1623      H1635   1.085       .  S
C1624      C1625   1.493       .  S
C1624      H1636   1.084       .  S
C1625      C1626   1.407       .  A
C1625      C1630   1.406       .  A
C1626      C1627   1.405       .  A
C1626      H1637   1.083       .  S
C1627      C1628   1.406       .  A
C1627      H1638   1.083       .  S
C1628      C1629   1.407       .  A
C1629      C1630   1.395       .  A
C1629      H1639   1.083       .  S
C1630      H1640   1.081       .  S
C1641      C1642   1.405       .  A
C1641      C1646   1.409       .  A
C1642      C1643   1.398       .  A
C1642      H1655   1.083   1_556  S
C1643      C1644   1.405       .  A
C1643      H1656   1.084       .  S
C1644      C1645   1.408       .  A
C1644      C1647   1.490       .  S
C1645      C1646   1.402       .  A
C1645      H1657   1.081       .  S
C1646      H1658   1.083       .  S
C1647      C1648   1.350       .  D
C1647      H1659   1.086       .  S
C1648      C1649   1.490       .  S
C1648      H1660   1.085       .  S
C1649      C1650   1.405       .  A
C1649      C1654   1.406       .  A
C1650      C1651   1.404       .  A
C1650      H1661   1.083       .  S
C1651      C1652   1.407       .  A
C1651      H1662   1.083       .  S
C1652      C1653   1.407       .  A
C1653      C1654   1.396       .  A
C1653      H1663   1.083       .  S
C1654      H1664   1.082       .  S
C1665      C1666   1.406       .  A
C1665      C1670   1.406       .  A
C1666      C1667   1.399       .  A
C1666      H1679   1.083       .  S
C1667      C1668   1.403       .  A
C1667      H1680   1.083       .  S
C1668      C1669   1.407       .  A
C1668      C1671   1.487       .  S
C1669      C1670   1.402       .  A
C1669      H1681   1.082       .  S
C1670      H1682   1.083       .  S
C1671      C1672   1.348       .  D
C1671      H1683   1.086       .  S
C1672      C1673   1.489       .  S
C1672      H1684   1.086       .  S
C1673      C1674   1.406       .  A
C1673      C1678   1.406       .  A
C1674      C1675   1.404       .  A
C1674      H1685   1.083       .  S
C1675      C1676   1.405       .  A
C1675      H1686   1.083       .  S
C1676      C1677   1.406       .  A
C1677      C1678   1.396       .  A
C1677      H1687   1.083       .  S
C1678      H1688   1.082       .  S
C1689      C1690   1.406       .  A
C1689      C1694   1.406       .  A
C1690      C1691   1.402       .  A
C1690      H1703   1.083       .  S
C1691      C1692   1.405       .  A
C1691      H1704   1.083       .  S
C1692      C1693   1.408       .  A
C1692      C1695   1.492       .  S
C1693      C1694   1.398       .  A
C1693      H1705   1.082       .  S
C1694      H1706   1.083       .  S
C1695      C1696   1.348       .  D
C1695      H1707   1.086       .  S
C1696      C1697   1.488       .  S
C1696      H1708   1.085       .  S
C1697      C1698   1.401       .  A
C1697      C1702   1.410       .  A
C1698      C1699   1.394       .  A
C1698      H1709   1.084       .  S
C1699      C1700   1.405       .  A
C1699      H1710   1.083       .  S
C1700      C1701   1.406       .  A
C1701      C1702   1.406       .  A
C1701      H1711   1.083       .  S
C1702      H1712   1.082       .  S
C1713      C1714   1.407       .  A
C1713      C1718   1.408       .  A
C1714      C1715   1.394       .  A
C1714      H1727   1.083       .  S
C1715      C1716   1.401       .  A
C1715      H1728   1.084       .  S
C1716      C1717   1.410       .  A
C1716      C1719   1.490       .  S
C1717      C1718   1.409       .  A
C1717      H1729   1.082       .  S
C1718      H1730   1.083       .  S
C1719      C1720   1.347       .  D
C1719      H1731   1.086       .  S
C1720      C1721   1.492       .  S
C1720      H1732   1.085       .  S
C1721      C1722   1.403       .  A
C1721      C1726   1.409       .  A
C1722      C1723   1.402       .  A
C1722      H1733   1.083       .  S
C1723      C1724   1.408       .  A
C1723      H1734   1.083       .  S
C1724      C1725   1.406       .  A
C1725      C1726   1.400       .  A
C1725      H1735   1.083       .  S
C1726      H1736   1.082       .  S
C1737      C1738   1.408       .  A
C1737      C1742   1.405       .  A
C1738      C1739   1.397       .  A
C1738      H1751   1.083       .  S
C1739      C1740   1.401       .  A
C1739      H1752   1.084       .  S
C1740      C1741   1.410       .  A
C1740      C1743   1.490       .  S
C1741      C1742   1.403       .  A
C1741      H1753   1.081       .  S
C1742      H1754   1.083       .  S
C1743      C1744   1.347       .  D
C1743      H1755   1.085       .  S
C1744      C1745   1.490       .  S
C1744      H1756   1.086       .  S
C1745      C1746   1.401       .  A
C1745      C1750   1.412       .  A
C1746      C1747   1.394       .  A
C1746      H1757   1.084       .  S
C1747      C1748   1.406       .  A
C1747      H1758   1.083       .  S
C1748      C1749   1.404       .  A
C1749      C1750   1.406       .  A
C1749      H1759   1.083       .  S
C1750      H1760   1.081       .  S
C1761      C1762   1.408       .  A
C1761      C1766   1.406       .  A
C1762      C1763   1.398       .  A
C1762      H1775   1.083       .  S
C1763      C1764   1.404       .  A
C1763      H1776   1.083       .  S
C1764      C1765   1.414       .  A
C1764      C1767   1.500       .  S
C1765      C1766   1.406       .  A
C1765      H1777   1.079       .  S
C1766      H1778   1.083       .  S
C1767      C1768   1.349       .  D
C1767      H1779   1.085       .  S
C1768      C1769   1.494       .  S
C1768      H1780   1.083       .  S
C1769      C1770   1.401       .  A
C1769      C1774   1.412       .  A
C1770      C1771   1.396       .  A
C1770      H1781   1.084       .  S
C1771      C1772   1.408       .  A
C1771      H1782   1.083       .  S
C1772      C1773   1.407       .  A
C1773      C1774   1.408       .  A
C1773      H1783   1.083       .  S
C1774      H1784   1.082       .  S
C1785      C1786   1.407       .  A
C1785      C1790   1.407       .  A
C1786      C1787   1.405       .  A
C1786      H1799   1.083       .  S
C1787      C1788   1.406       .  A
C1787      H1800   1.083       .  S
C1788      C1789   1.405       .  A
C1788      C1791   1.490       .  S
C1789      C1790   1.392       .  A
C1789      H1801   1.082       .  S
C1790      H1802   1.083       .  S
C1791      C1792   1.349       .  D
C1791      H1803   1.085       .  S
C1792      C1793   1.488       .  S
C1792      H1804   1.086       .  S
C1793      C1794   1.403       .  A
C1793      C1798   1.409       .  A
C1794      C1795   1.395       .  A
C1794      H1805   1.084       .  S
C1795      C1796   1.405       .  A
C1795      H1806   1.083       .  S
C1796      C1797   1.407       .  A
C1797      C1798   1.403       .  A
C1797      H1807   1.083       .  S
C1798      H1808   1.081       .  S
C1809      C1810   1.406       .  A
C1809      C1814   1.405       .  A
C1810      C1811   1.400       .  A
C1810      H1823   1.083       .  S
C1811      C1812   1.404       .  A
C1811      H1824   1.083       .  S
C1812      C1813   1.408       .  A
C1812      C1815   1.488       .  S
C1813      C1814   1.396       .  A
C1813      H1825   1.081       .  S
C1814      H1826   1.083       .  S
C1815      C1816   1.347       .  D
C1815      H1827   1.086       .  S
C1816      C1817   1.481       .  S
C1816      H1828   1.084       .  S
C1817      C1818   1.401       .  A
C1817      C1822   1.408       .  A
C1818      C1819   1.394       .  A
C1818      H1829   1.084       .  S
C1819      C1820   1.403       .  A
C1819      H1830   1.083       .  S
C1820      C1821   1.404       .  A
C1821      C1822   1.402       .  A
C1821      H1831   1.083       .  S
C1822      H1832   1.082       .  S
C1833      C1834   1.405       .  A
C1833      C1838   1.406       .  A
C1834      C1835   1.393       .  A
C1834      H1847   1.083       .  S
C1835      C1836   1.402       .  A
C1835      H1848   1.084       .  S
C1836      C1837   1.410       .  A
C1836      C1839   1.488       .  S
C1837      C1838   1.403       .  A
C1837      H1849   1.081       .  S
C1838      H1850   1.083       .  S
C1839      C1840   1.348       .  D
C1839      H1851   1.084       .  S
C1840      C1841   1.493       .  S
C1840      H1852   1.085       .  S
C1841      C1842   1.405       .  A
C1841      C1846   1.409       .  A
C1842      C1843   1.401       .  A
C1842      H1853   1.084       .  S
C1843      C1844   1.406       .  A
C1843      H1854   1.083       .  S
C1844      C1845   1.405       .  A
C1845      C1846   1.397       .  A
C1845      H1855   1.083       .  S
C1846      H1856   1.080       .  S
C1857      C1858   1.407       .  A
C1857      C1862   1.406       .  A
C1858      C1859   1.398       .  A
C1858      H1871   1.083       .  S
C1859      C1860   1.402       .  A
C1859      H1872   1.083       .  S
C1860      C1861   1.406       .  A
C1860      C1863   1.482       .  S
C1861      C1862   1.396       .  A
C1861      H1873   1.082       .  S
C1862      H1874   1.083       .  S
C1863      C1864   1.345       .  D
C1863      H1875   1.086       .  S
C1864      C1865   1.480       .  S
C1864      H1876   1.086       .  S
C1865      C1866   1.401       .  A
C1865      C1870   1.406       .  A
C1866      C1867   1.395       .  A
C1866      H1877   1.084       .  S
C1867      C1868   1.405       .  A
C1867      H1878   1.083       .  S
C1868      C1869   1.406       .  A
C1869      C1870   1.399       .  A
C1869      H1879   1.083       .  S
C1870      H1880   1.082       .  S
C1881      C1882   1.407       .  A
C1881      C1886   1.406       .  A
C1882      C1883   1.396       .  A
C1882      H1895   1.083       .  S
C1883      C1884   1.400       .  A
C1883      H1896   1.084       .  S
C1884      C1885   1.407       .  A
C1884      C1887   1.480       .  S
C1885      C1886   1.402       .  A
C1885      H1897   1.083       .  S
C1886      H1898   1.083       .  S
C1887      C1888   1.344       .  D
C1887      H1899   1.087       .  S
C1888      C1889   1.483       .  S
C1888      H1900   1.087       .  S
C1889      C1890   1.404       .  A
C1889      C1894   1.405       .  A
C1890      C1891   1.402       .  A
C1890      H1901   1.083       .  S
C1891      C1892   1.405       .  A
C1891      H1902   1.083       .  S
C1892      C1893   1.405       .  A
C1893      C1894   1.396       .  A
C1893      H1903   1.083       .  S
C1894      H1904   1.083       .  S
C1905      C1906   1.407       .  A
C1905      C1910   1.406       .  A
C1906      C1907   1.402       .  A
C1906      H1919   1.083       .  S
C1907      C1908   1.405       .  A
C1907      H1920   1.083       .  S
C1908      C1909   1.407       .  A
C1908      C1911   1.490       .  S
C1909      C1910   1.396       .  A
C1909      H1921   1.082       .  S
C1910      H1922   1.083       .  S
C1911      C1912   1.347       .  D
C1911      H1923   1.086       .  S
C1912      C1913   1.485       .  S
C1912      H1924   1.086       .  S
C1913      C1914   1.400       .  A
C1913      C1918   1.409       .  A
C1914      C1915   1.393       .  A
C1914      H1925   1.084       .  S
C1915      C1916   1.406       .  A
C1915      H1926   1.083       .  S
C1916      C1917   1.407       .  A
C1917      C1918   1.405       .  A
C1917      H1927   1.083       .  S
C1918      H1928   1.082       .  S
C1929      C1930   1.406       .  A
C1929      C1934   1.406       .  A
C1930      C1931   1.398       .  A
C1930      H1943   1.083       .  S
C1931      C1932   1.403       .  A
C1931      H1944   1.084   1_556  S
C1932      C1933   1.407       .  A
C1932      C1935   1.484       .  S
C1933      C1934   1.397       .  A
C1933      H1945   1.082       .  S
C1934      H1946   1.083       .  S
C1935      C1936   1.347       .  D
C1935      H1947   1.086   1_556  S
C1936      C1937   1.484   1_556  S
C1936      H1948   1.086       .  S
C1937      C1938   1.402       .  A
C1937      C1942   1.406       .  A
C1938      C1939   1.397       .  A
C1938      H1949   1.083   1_554  S
C1939      C1940   1.406       .  A
C1939      H1950   1.083       .  S
C1940      C1941   1.407       .  A
C1941      C1942   1.398       .  A
C1941      H1951   1.083       .  S
C1942      H1952   1.082       .  S
C1953      C1954   1.405       .  A
C1953      C1958   1.407       .  A
C1954      C1955   1.400       .  A
C1954      H1967   1.083       .  S
C1955      C1956   1.407       .  A
C1955      H1968   1.083       .  S
C1956      C1957   1.408       .  A
C1956      C1959   1.494       .  S
C1957      C1958   1.399       .  A
C1957      H1969   1.079       .  S
C1958      H1970   1.083       .  S
C1959      C1960   1.352       .  D
C1959      H1971   1.085       .  S
C1960      C1961   1.491       .  S
C1960      H1972   1.082       .  S
C1961      C1962   1.407       .  A
C1961      C1966   1.406       .  A
C1962      C1963   1.403       .  A
C1962      H1973   1.083       .  S
C1963      C1964   1.405       .  A
C1963      H1974   1.083       .  S
C1964      C1965   1.408       .  A
C1965      C1966   1.396       .  A
C1965      H1975   1.083       .  S
C1966      H1976   1.081       .  S
C1977      C1978   1.404       .  A
C1977      C1982   1.405       .  A
C1978      C1979   1.394       .  A
C1978      H1991   1.084       .  S
C1979      C1980   1.401       .  A
C1979      H1992   1.083       .  S
C1980      C1981   1.409       .  A
C1980      C1983   1.484       .  S
C1981      C1982   1.404       .  A
C1981      H1993   1.082       .  S
C1982      H1994   1.083       .  S
C1983      C1984   1.348       .  D
C1983      H1995   1.083       .  S
C1984      C1985   1.492       .  S
C1984      H1996   1.086       .  S
C1985      C1986   1.404       .  A
C1985      C1990   1.409       .  A
C1986      C1987   1.400       .  A
C1986      H1997   1.083       .  S
C1987      C1988   1.406       .  A
C1987      H1998   1.083       .  S
C1988      C1989   1.405       .  A
C1989      C1990   1.398       .  A
C1989      H1999   1.083       .  S
C1990      H2000   1.081       .  S
C2001      C2002   1.406       .  A
C2001      C2006   1.408       .  A
C2002      C2003   1.397       .  A
C2002      H2015   1.083       .  S
C2003      C2004   1.404       .  A
C2003      H2016   1.084       .  S
C2004      C2005   1.408       .  A
C2004      C2007   1.490       .  S
C2005      C2006   1.403       .  A
C2005      H2017   1.081       .  S
C2006      H2018   1.083       .  S
C2007      C2008   1.350       .  D
C2007      H2019   1.086       .  S
C2008      C2009   1.492       .  S
C2008      H2020   1.085       .  S
C2009      C2010   1.407       .  A
C2009      C2014   1.405       .  A
C2010      C2011   1.406       .  A
C2010      H2021   1.083       .  S
C2011      C2012   1.407       .  A
C2011      H2022   1.083       .  S
C2012      C2013   1.408       .  A
C2013      C2014   1.393       .  A
C2013      H2023   1.083       .  S
C2014      H2024   1.081       .  S
C2025      C2026   1.407       .  A
C2025      C2030   1.406       .  A
C2026      C2027   1.398       .  A
C2026      H2039   1.083       .  S
C2027      C2028   1.402       .  A
C2027      H2040   1.083       .  S
C2028      C2029   1.410       .  A
C2028      C2031   1.491       .  S
C2029      C2030   1.402       .  A
C2029      H2041   1.081       .  S
C2030      H2042   1.083       .  S
C2031      C2032   1.348       .  D
C2031      H2043   1.084       .  S
C2032      C2033   1.492       .  S
C2032      H2044   1.085       .  S
C2033      C2034   1.401       .  A
C2033      C2038   1.412       .  A
C2034      C2035   1.395       .  A
C2034      H2045   1.084       .  S
C2035      C2036   1.406       .  A
C2035      H2046   1.083       .  S
C2036      C2037   1.404       .  A
C2037      C2038   1.406       .  A
C2037      H2047   1.083       .  S
C2038      H2048   1.081       .  S
C2049      C2050   1.406       .  A
C2049      C2054   1.409       .  A
C2050      C2051   1.406       .  A
C2050      H2063   1.082       .  S
C2051      C2052   1.408       .  A
C2051      H2064   1.083       .  S
C2052      C2053   1.406       .  A
C2052      C2055   1.495       .  S
C2053      C2054   1.394       .  A
C2053      H2065   1.081       .  S
C2054      H2066   1.083       .  S
C2055      C2056   1.353       .  D
C2055      H2067   1.083       .  S
C2056      C2057   1.495       .  S
C2056      H2068   1.085       .  S
C2057      C2058   1.406       .  A
C2057      C2062   1.409       .  A
C2058      C2059   1.399       .  A
C2058      H2069   1.084       .  S
C2059      C2060   1.405       .  A
C2059      H2070   1.083       .  S
C2060      C2061   1.408       .  A
C2061      C2062   1.402       .  A
C2061      H2071   1.083       .  S
C2062      H2072   1.080       .  S
C2073      C2074   1.404       .  A
C2073      C2078   1.405       .  A
C2074      C2075   1.396       .  A
C2074      H2087   1.083       .  S
C2075      C2076   1.402       .  A
C2075      H2088   1.083       .  S
C2076      C2077   1.406       .  A
C2076      C2079   1.479       .  S
C2077      C2078   1.398       .  A
C2077      H2089   1.082       .  S
C2078      H2090   1.083       .  S
C2079      C2080   1.344       .  D
C2079      H2091   1.087       .  S
C2080      C2081   1.480       .  S
C2080      H2092   1.086       .  S
C2081      C2082   1.402       .  A
C2081      C2086   1.405       .  A
C2082      C2083   1.399       .  A
C2082      H2093   1.083       .  S
C2083      C2084   1.406       .  A
C2083      H2094   1.083       .  S
C2084      C2085   1.405       .  A
C2085      C2086   1.395       .  A
C2085      H2095   1.083       .  S
C2086      H2096   1.083       .  S
C2097      C2098   1.407       .  A
C2097      C2102   1.408       .  A
C2098      C2099   1.398       .  A
C2098      H2111   1.083       .  S
C2099      C2100   1.401       .  A
C2099      H2112   1.083       .  S
C2100      C2101   1.407       .  A
C2100      C2103   1.485       .  S
C2101      C2102   1.406       .  A
C2101      H2113   1.083       .  S
C2102      H2114   1.083       .  S
C2103      C2104   1.347       .  D
C2103      H2115   1.087       .  S
C2104      C2105   1.490       .  S
C2104      H2116   1.087       .  S
C2105      C2106   1.407       .  A
C2105      C2110   1.405       .  A
C2106      C2107   1.406       .  A
C2106      H2117   1.083       .  S
C2107      C2108   1.404       .  A
C2107      H2118   1.083       .  S
C2108      C2109   1.406       .  A
C2109      C2110   1.397       .  A
C2109      H2119   1.083       .  S
C2110      H2120   1.083       .  S
C2121      C2122   1.406       .  A
C2121      C2126   1.405       .  A
C2122      C2123   1.395       .  A
C2122      H2135   1.083       .  S
C2123      C2124   1.401       .  A
C2123      H2136   1.084       .  S
C2124      C2125   1.406       .  A
C2124      C2127   1.480       .  S
C2125      C2126   1.398       .  A
C2125      H2137   1.082       .  S
C2126      H2138   1.083       .  S
C2127      C2128   1.345       .  D
C2127      H2139   1.086       .  S
C2128      C2129   1.482       .  S
C2128      H2140   1.086       .  S
C2129      C2130   1.402       .  A
C2129      C2134   1.406       .  A
C2130      C2131   1.398       .  A
C2130      H2141   1.084       .  S
C2131      C2132   1.406       .  A
C2131      H2142   1.083       .  S
C2132      C2133   1.406       .  A
C2133      C2134   1.396       .  A
C2133      H2143   1.083       .  S
C2134      H2144   1.082       .  S
C2145      C2146   1.407       .  A
C2145      C2150   1.405       .  A
C2146      C2147   1.402       .  A
C2146      H2159   1.083       .  S
C2147      C2148   1.404       .  A
C2147      H2160   1.083       .  S
C2148      C2149   1.408       .  A
C2148      C2151   1.489       .  S
C2149      C2150   1.396       .  A
C2149      H2161   1.082       .  S
C2150      H2162   1.083       .  S
C2151      C2152   1.346       .  D
C2151      H2163   1.086       .  S
C2152      C2153   1.484       .  S
C2152      H2164   1.086       .  S
C2153      C2154   1.398       .  A
C2153      C2158   1.410       .  A
C2154      C2155   1.390       .  A
C2154      H2165   1.084       .  S
C2155      C2156   1.408       .  A
C2155      H2166   1.083       .  S
C2156      C2157   1.408       .  A
C2157      C2158   1.408       .  A
C2157      H2167   1.083       .  S
C2158      H2168   1.082       .  S
C2169      C2170   1.409       .  A
C2169      C2174   1.404       .  A
C2170      C2171   1.401       .  A
C2170      H2183   1.083       .  S
C2171      C2172   1.403       .  A
C2171      H2184   1.084       .  S
C2172      C2173   1.410       .  A
C2172      C2175   1.493       .  S
C2173      C2174   1.400       .  A
C2173      H2185   1.081       .  S
C2174      H2186   1.083       .  S
C2175      C2176   1.347       .  D
C2175      H2187   1.086       .  S
C2176      C2177   1.488       .  S
C2176      H2188   1.085       .  S
C2177      C2178   1.401       .  A
C2177      C2182   1.411       .  A
C2178      C2179   1.392       .  A
C2178      H2189   1.084       .  S
C2179      C2180   1.404       .  A
C2179      H2190   1.083       .  S
C2180      C2181   1.406       .  A
C2181      C2182   1.408       .  A
C2181      H2191   1.083       .  S
C2182      H2192   1.082       .  S
C2193      C2194   1.406       .  A
C2193      C2198   1.406       .  A
C2194      C2195   1.397       .  A
C2194      H2207   1.083       .  S
C2195      C2196   1.402       .  A
C2195      H2208   1.083       .  S
C2196      C2197   1.406       .  A
C2196      C2199   1.483       .  S
C2197      C2198   1.397       .  A
C2197      H2209   1.082       .  S
C2198      H2210   1.083       .  S
C2199      C2200   1.347       .  D
C2199      H2211   1.086       .  S
C2200      C2201   1.484       .  S
C2200      H2212   1.086       .  S
C2201      C2202   1.403       .  A
C2201      C2206   1.406       .  A
C2202      C2203   1.398       .  A
C2202      H2213   1.083       .  S
C2203      C2204   1.406       .  A
C2203      H2214   1.083       .  S
C2204      C2205   1.407       .  A
C2205      C2206   1.397       .  A
C2205      H2215   1.083       .  S
C2206      H2216   1.082       .  S
C2217      C2218   1.406       .  A
C2217      C2222   1.409       .  A
C2218      C2219   1.407       .  A
C2218      H2231   1.083       .  S
C2219      C2220   1.407       .  A
C2219      H2232   1.083       .  S
C2220      C2221   1.404       .  A
C2220      C2223   1.490       .  S
C2221      C2222   1.393       .  A
C2221      H2233   1.082       .  S
C2222      H2234   1.083       .  S
C2223      C2224   1.351       .  D
C2223      H2235   1.085       .  S
C2224      C2225   1.489       .  S
C2224      H2236   1.086       .  S
C2225      C2226   1.405       .  A
C2225      C2230   1.407       .  A
C2226      C2227   1.399       .  A
C2226      H2237   1.083       .  S
C2227      C2228   1.405       .  A
C2227      H2238   1.083       .  S
C2228      C2229   1.408       .  A
C2229      C2230   1.401       .  A
C2229      H2239   1.083       .  S
C2230      H2240   1.081       .  S
C2241      C2242   1.406       .  A
C2241      C2246   1.408       .  A
C2242      C2243   1.398       .  A
C2242      H2255   1.083       .  S
C2243      C2244   1.402       .  A
C2243      H2256   1.083       .  S
C2244      C2245   1.406       .  A
C2244      C2247   1.484       .  S
C2245      C2246   1.404       .  A
C2245      H2257   1.083       .  S
C2246      H2258   1.083       .  S
C2247      C2248   1.347       .  D
C2247      H2259   1.087       .  S
C2248      C2249   1.487       .  S
C2248      H2260   1.086       .  S
C2249      C2250   1.406       .  A
C2249      C2254   1.404       .  A
C2250      C2251   1.406       .  A
C2250      H2261   1.083       .  S
C2251      C2252   1.406       .  A
C2251      H2262   1.083       .  S
C2252      C2253   1.407       .  A
C2253      C2254   1.396       .  A
C2253      H2263   1.083       .  S
C2254      H2264   1.083       .  S
C2265      C2266   1.407       .  A
C2265      C2270   1.408       .  A
C2266      C2267   1.401       .  A
C2266      H2279   1.083       .  S
C2267      C2268   1.404       .  A
C2267      H2280   1.083       .  S
C2268      C2269   1.407       .  A
C2268      C2271   1.491       .  S
C2269      C2270   1.402       .  A
C2269      H2281   1.082       .  S
C2270      H2282   1.083       .  S
C2271      C2272   1.347       .  D
C2271      H2283   1.087       .  S
C2272      C2273   1.487       .  S
C2272      H2284   1.086       .  S
C2273      C2274   1.402       .  A
C2273      C2278   1.409       .  A
C2274      C2275   1.397       .  A
C2274      H2285   1.083       .  S
C2275      C2276   1.405       .  A
C2275      H2286   1.083       .  S
C2276      C2277   1.405       .  A
C2277      C2278   1.405       .  A
C2277      H2287   1.083       .  S
C2278      H2288   1.083       .  S
C2289      C2290   1.405       .  A
C2289      C2294   1.406       .  A
C2290      C2291   1.393       .  A
C2290      H2303   1.083       .  S
C2291      C2292   1.400       .  A
C2291      H2304   1.084       .  S
C2292      C2293   1.410       .  A
C2292      C2295   1.486       .  S
C2293      C2294   1.408       .  A
C2293      H2305   1.082       .  S
C2294      H2306   1.083       .  S
C2295      C2296   1.348       .  D
C2295      H2307   1.084       .  S
C2296      C2297   1.494       .  S
C2296      H2308   1.086       .  S
C2297      C2298   1.404       .  A
C2297      C2302   1.410       .  A
C2298      C2299   1.401       .  A
C2298      H2309   1.083       .  S
C2299      C2300   1.408       .  A
C2299      H2310   1.083       .  S
C2300      C2301   1.405       .  A
C2301      C2302   1.399       .  A
C2301      H2311   1.083       .  S
C2302      H2312   1.081       .  S
C2313      C2314   1.406       .  A
C2313      C2318   1.407       .  A
C2314      C2315   1.406       .  A
C2314      H2327   1.083       .  S
C2315      C2316   1.407       .  A
C2315      H2328   1.083       .  S
C2316      C2317   1.403       .  A
C2316      C2319   1.488       .  S
C2317      C2318   1.394       .  A
C2317      H2329   1.083       .  S
C2318      H2330   1.083       .  S
C2319      C2320   1.347       .  D
C2319      H2331   1.086       .  S
C2320      C2321   1.482       .  S
C2320      H2332   1.087       .  S
C2321      C2322   1.401       .  A
C2321      C2326   1.407       .  A
C2322      C2323   1.396       .  A
C2322      H2333   1.083       .  S
C2323      C2324   1.406       .  A
C2323      H2334   1.083       .  S
C2324      C2325   1.407       .  A
C2325      C2326   1.406       .  A
C2325      H2335   1.083       .  S
C2326      H2336   1.083       .  S
C2337      C2338   1.405       .  A
C2337      C2342   1.405       .  A
C2338      C2339   1.397       .  A
C2338      H2351   1.083       .  S
C2339      C2340   1.402       .  A
C2339      H2352   1.084       .  S
C2340      C2341   1.410       .  A
C2340      C2343   1.488       .  S
C2341      C2342   1.406       .  A
C2341      H2353   1.082       .  S
C2342      H2354   1.083       .  S
C2343      C2344   1.348       .  D
C2343      H2355   1.086       .  S
C2344      C2345   1.492       .  S
C2344      H2356   1.087       .  S
C2345      C2346   1.404       .  A
C2345      C2350   1.408       .  A
C2346      C2347   1.401       .  A
C2346      H2357   1.083       .  S
C2347      C2348   1.407       .  A
C2347      H2358   1.083       .  S
C2348      C2349   1.407       .  A
C2349      C2350   1.402       .  A
C2349      H2359   1.083       .  S
C2350      H2360   1.082       .  S
C2361      C2362   1.405       .  A
C2361      C2366   1.407       .  A
C2362      C2363   1.398       .  A
C2362      H2375   1.083       .  S
C2363      C2364   1.405       .  A
C2363      H2376   1.084       .  S
C2364      C2365   1.407       .  A
C2364      C2367   1.488       .  S
C2365      C2366   1.399       .  A
C2365      H2377   1.081       .  S
C2366      H2378   1.083       .  S
C2367      C2368   1.350       .  D
C2367      H2379   1.086       .  S
C2368      C2369   1.489       .  S
C2368      H2380   1.085       .  S
C2369      C2370   1.406       .  A
C2369      C2374   1.405       .  A
C2370      C2371   1.404       .  A
C2370      H2381   1.083       .  S
C2371      C2372   1.406       .  A
C2371      H2382   1.083       .  S
C2372      C2373   1.408       .  A
C2373      C2374   1.393       .  A
C2373      H2383   1.083       .  S
C2374      H2384   1.081       .  S
C2385      C2386   1.406       .  A
C2385      C2390   1.408       .  A
C2386      C2387   1.404       .  A
C2386      H2399   1.083       .  S
C2387      C2388   1.407       .  A
C2387      H2400   1.083       .  S
C2388      C2389   1.405       .  A
C2388      C2391   1.490       .  S
C2389      C2390   1.393       .  A
C2389      H2401   1.081       .  S
C2390      H2402   1.083       .  S
C2391      C2392   1.351       .  D
C2391      H2403   1.085       .  S
C2392      C2393   1.489       .  S
C2392      H2404   1.085       .  S
C2393      C2394   1.405       .  A
C2393      C2398   1.407       .  A
C2394      C2395   1.398       .  A
C2394      H2405   1.084       .  S
C2395      C2396   1.405       .  A
C2395      H2406   1.083       .  S
C2396      C2397   1.407       .  A
C2397      C2398   1.400       .  A
C2397      H2407   1.083       .  S
C2398      H2408   1.081       .  S
C2409      C2410   1.406       .  A
C2409      C2414   1.405       .  A
C2410      C2411   1.397       .  A
C2410      H2423   1.083       .  S
C2411      C2412   1.402       .  A
C2411      H2424   1.083       .  S
C2412      C2413   1.406       .  A
C2412      C2415   1.482       .  S
C2413      C2414   1.396       .  A
C2413      H2425   1.082       .  S
C2414      H2426   1.083       .  S
C2415      C2416   1.347       .  D
C2415      H2427   1.085       .  S
C2416      C2417   1.483       .  S
C2416      H2428   1.086       .  S
C2417      C2418   1.403       .  A
C2417      C2422   1.406       .  A
C2418      C2419   1.397       .  A
C2418      H2429   1.083       .  S
C2419      C2420   1.405       .  A
C2419      H2430   1.083       .  S
C2420      C2421   1.407       .  A
C2421      C2422   1.396       .  A
C2421      H2431   1.083       .  S
C2422      H2432   1.082       .  S
C2433      C2434   1.404       .  A
C2433      C2438   1.408       .  A
C2434      C2435   1.394       .  A
C2434      H2447   1.083       .  S
C2435      C2436   1.403       .  A
C2435      H2448   1.084       .  S
C2436      C2437   1.409       .  A
C2436      C2439   1.487       .  S
C2437      C2438   1.404       .  A
C2437      H2449   1.081       .  S
C2438      H2450   1.083       .  S
C2439      C2440   1.348       .  D
C2439      H2451   1.087       .  S
C2440      C2441   1.488       .  S
C2440      H2452   1.085       .  S
C2441      C2442   1.405       .  A
C2441      C2446   1.405       .  A
C2442      C2443   1.406       .  A
C2442      H2453   1.083       .  S
C2443      C2444   1.408       .  A
C2443      H2454   1.083       .  S
C2444      C2445   1.407       .  A
C2445      C2446   1.391       .  A
C2445      H2455   1.083       .  S
C2446      H2456   1.082       .  S
C2457      C2458   1.408       .  A
C2457      C2462   1.405       .  A
C2458      C2459   1.399       .  A
C2458      H2471   1.083       .  S
C2459      C2460   1.402       .  A
C2459      H2472   1.083       .  S
C2460      C2461   1.411       .  A
C2460      C2463   1.492       .  S
C2461      C2462   1.400       .  A
C2461      H2473   1.081       .  S
C2462      H2474   1.083       .  S
C2463      C2464   1.346       .  D
C2463      H2475   1.086       .  S
C2464      C2465   1.486       .  S
C2464      H2476   1.085       .  S
C2465      C2466   1.400       .  A
C2465      C2470   1.410       .  A
C2466      C2467   1.392       .  A
C2466      H2477   1.084       .  S
C2467      C2468   1.407       .  A
C2467      H2478   1.083       .  S
C2468      C2469   1.407       .  A
C2469      C2470   1.407       .  A
C2469      H2479   1.083       .  S
C2470      H2480   1.082       .  S
C2481      C2482   1.405       .  A
C2481      C2486   1.408       .  A
C2482      C2483   1.400       .  A
C2482      H2495   1.083       .  S
C2483      C2484   1.406       .  A
C2483      H2496   1.083       .  S
C2484      C2485   1.407       .  A
C2484      C2487   1.491       .  S
C2485      C2486   1.400       .  A
C2485      H2497   1.081       .  S
C2486      H2498   1.083       .  S
C2487      C2488   1.351       .  D
C2487      H2499   1.086       .  S
C2488      C2489   1.490       .  S
C2488      H2500   1.084       .  S
C2489      C2490   1.406       .  A
C2489      C2494   1.405       .  A
C2490      C2491   1.405       .  A
C2490      H2501   1.083       .  S
C2491      C2492   1.406       .  A
C2491      H2502   1.083       .  S
C2492      C2493   1.408       .  A
C2493      C2494   1.394       .  A
C2493      H2503   1.083       .  S
C2494      H2504   1.082       .  S
C2505      C2506   1.407       .  A
C2505      C2510   1.404       .  A
C2506      C2507   1.399       .  A
C2506      H2519   1.083       .  S
C2507      C2508   1.404       .  A
C2507      H2520   1.083       .  S
C2508      C2509   1.411       .  A
C2508      C2511   1.495       .  S
C2509      C2510   1.400       .  A
C2509      H2521   1.080       .  S
C2510      H2522   1.083       .  S
C2511      C2512   1.347       .  D
C2511      H2523   1.086       .  S
C2512      C2513   1.487       .  S
C2512      H2524   1.083       .  S
C2513      C2514   1.400       .  A
C2513      C2518   1.411       .  A
C2514      C2515   1.393       .  A
C2514      H2525   1.084       .  S
C2515      C2516   1.405       .  A
C2515      H2526   1.084       .  S
C2516      C2517   1.404       .  A
C2517      C2518   1.407       .  A
C2517      H2527   1.083       .  S
C2518      H2528   1.082       .  S
C2529      C2530   1.405       .  A
C2529      C2534   1.408       .  A
C2530      C2531   1.399       .  A
C2530      H2543   1.083       .  S
C2531      C2532   1.406       .  A
C2531      H2544   1.084       .  S
C2532      C2533   1.409       .  A
C2532      C2535   1.496       .  S
C2533      C2534   1.402       .  A
C2533      H2545   1.079       .  S
C2534      H2546   1.083       .  S
C2535      C2536   1.353       .  D
C2535      H2547   1.084       .  S
C2536      C2537   1.495       .  S
C2536      H2548   1.083       .  S
C2537      C2538   1.408       .  A
C2537      C2542   1.406       .  A
C2538      C2539   1.405       .  A
C2538      H2549   1.083       .  S
C2539      C2540   1.406       .  A
C2539      H2550   1.083       .  S
C2540      C2541   1.408       .  A
C2541      C2542   1.396       .  A
C2541      H2551   1.083       .  S
C2542      H2552   1.081       .  S
C2553      C2554   1.407       .  A
C2553      C2558   1.408       .  A
C2554      C2555   1.397       .  A
C2554      H2567   1.083       .  S
C2555      C2556   1.404       .  A
C2555      H2568   1.084       .  S
C2556      C2557   1.409       .  A
C2556      C2559   1.492       .  S
C2557      C2558   1.406       .  A
C2557      H2569   1.081       .  S
C2558      H2570   1.083       .  S
C2559      C2560   1.351       .  D
C2559      H2571   1.086       .  S
C2560      C2561   1.494       .  S
C2560      H2572   1.085       .  S
C2561      C2562   1.407       .  A
C2561      C2566   1.406       .  A
C2562      C2563   1.406       .  A
C2562      H2573   1.083       .  S
C2563      C2564   1.406       .  A
C2563      H2574   1.083       .  S
C2564      C2565   1.408       .  A
C2565      C2566   1.395       .  A
C2565      H2575   1.083       .  S
C2566      H2576   1.082       .  S
C2577      C2578   1.408       .  A
C2577      C2582   1.405       .  A
C2578      C2579   1.402       .  A
C2578      H2591   1.083       .  S
C2579      C2580   1.405       .  A
C2579      H2592   1.083       .  S
C2580      C2581   1.410       .  A
C2580      C2583   1.494       .  S
C2581      C2582   1.398       .  A
C2581      H2593   1.081       .  S
C2582      H2594   1.083       .  S
C2583      C2584   1.348       .  D
C2583      H2595   1.085       .  S
C2584      C2585   1.488       .  S
C2584      H2596   1.084       .  S
C2585      C2586   1.401       .  A
C2585      C2590   1.410       .  A
C2586      C2587   1.393       .  A
C2586      H2597   1.084       .  S
C2587      C2588   1.406       .  A
C2587      H2598   1.083       .  S
C2588      C2589   1.407       .  A
C2589      C2590   1.407       .  A
C2589      H2599   1.083       .  S
C2590      H2600   1.082       .  S
C2601      C2602   1.408       .  A
C2601      C2606   1.405       .  A
C2602      C2603   1.400       .  A
C2602      H2615   1.083       .  S
C2603      C2604   1.403       .  A
C2603      H2616   1.083       .  S
C2604      C2605   1.411       .  A
C2604      C2607   1.495       .  S
C2605      C2606   1.402       .  A
C2605      H2617   1.081       .  S
C2606      H2618   1.083       .  S
C2607      C2608   1.347       .  D
C2607      H2619   1.085       .  S
C2608      C2609   1.490       .  S
C2608      H2620   1.084       .  S
C2609      C2610   1.399       .  A
C2609      C2614   1.412       .  A
C2610      C2611   1.391       .  A
C2610      H2621   1.084       .  S
C2611      C2612   1.408       .  A
C2611      H2622   1.083       .  S
C2612      C2613   1.408       .  A
C2613      C2614   1.409       .  A
C2613      H2623   1.083       .  S
C2614      H2624   1.082       .  S
C2625      C2626   1.406       .  A
C2625      C2630   1.408       .  A
C2626      C2627   1.396       .  A
C2626      H2639   1.083       .  S
C2627      C2628   1.403       .  A
C2627      H2640   1.083       .  S
C2628      C2629   1.408       .  A
C2628      C2631   1.487       .  S
C2629      C2630   1.403       .  A
C2629      H2641   1.082       .  S
C2630      H2642   1.082       .  S
C2631      C2632   1.349       .  D
C2631      H2643   1.085       .  S
C2632      C2633   1.489       .  S
C2632      H2644   1.084       .  S
C2633      C2634   1.405       .  A
C2633      C2638   1.405       .  A
C2634      C2635   1.403       .  A
C2634      H2645   1.082       .  S
C2635      C2636   1.407       .  A
C2635      H2646   1.083       .  S
C2636      C2637   1.408       .  A
C2637      C2638   1.395       .  A
C2637      H2647   1.082       .  S
C2638      H2648   1.083       .  S
C2649      C2650   1.404       .  A
C2649      C2654   1.408       .  A
C2650      C2651   1.397       .  A
C2650      H2663   1.083       .  S
C2651      C2652   1.404       .  A
C2651      H2664   1.083       .  S
C2652      C2653   1.408       .  A
C2652      C2655   1.488       .  S
C2653      C2654   1.402       .  A
C2653      H2665   1.081       .  S
C2654      H2666   1.083       .  S
C2655      C2656   1.350       .  D
C2655      H2667   1.086       .  S
C2656      C2657   1.490       .  S
C2656      H2668   1.085       .  S
C2657      C2658   1.407       .  A
C2657      C2662   1.405       .  A
C2658      C2659   1.405       .  A
C2658      H2669   1.083       .  S
C2659      C2660   1.406       .  A
C2659      H2670   1.083       .  S
C2660      C2661   1.408       .  A
C2661      C2662   1.393       .  A
C2661      H2671   1.083       .  S
C2662      H2672   1.082       .  S
C2673      C2674   1.407       .  A
C2673      C2678   1.407       .  A
C2674      C2675   1.406       .  A
C2674      H2687   1.083       .  S
C2675      C2676   1.406       .  A
C2675      H2688   1.083       .  S
C2676      C2677   1.405       .  A
C2676      C2679   1.490       .  S
C2677      C2678   1.393       .  A
C2677      H2689   1.082       .  S
C2678      H2690   1.083       .  S
C2679      C2680   1.350       .  D
C2679      H2691   1.085       .  S
C2680      C2681   1.488       .  S
C2680      H2692   1.086       .  S
C2681      C2682   1.403       .  A
C2681      C2686   1.408       .  A
C2682      C2683   1.396       .  A
C2682      H2693   1.084       .  S
C2683      C2684   1.406       .  A
C2683      H2694   1.083       .  S
C2684      C2685   1.408       .  A
C2685      C2686   1.404       .  A
C2685      H2695   1.083       .  S
C2686      H2696   1.081       .  S
C2697      C2698   1.404       .  A
C2697      C2702   1.405       .  A
C2698      C2699   1.397       .  A
C2698      H2711   1.083       .  S
C2699      C2700   1.403       .  A
C2699      H2712   1.083       .  S
C2700      C2701   1.406       .  A
C2700      C2703   1.480       .  S
C2701      C2702   1.397       .  A
C2701      H2713   1.082       .  S
C2702      H2714   1.083       .  S
C2703      C2704   1.344   1_545  D
C2703      H2715   1.087   1_545  S
C2704      C2705   1.479       .  S
C2704      H2716   1.086       .  S
C2705      C2706   1.401       .  A
C2705      C2710   1.406       .  A
C2706      C2707   1.398       .  A
C2706      H2717   1.083       .  S
C2707      C2708   1.405       .  A
C2707      H2718   1.083       .  S
C2708      C2709   1.404       .  A
C2709      C2710   1.397       .  A
C2709      H2719   1.083       .  S
C2710      H2720   1.083       .  S
C2721      C2722   1.405       .  A
C2721      C2726   1.405       .  A
C2722      C2723   1.399       .  A
C2722      H2735   1.083       .  S
C2723      C2724   1.402       .  A
C2723      H2736   1.083       .  S
C2724      C2725   1.408       .  A
C2724      C2727   1.488       .  S
C2725      C2726   1.405       .  A
C2725      H2737   1.083       .  S
C2726      H2738   1.083       .  S
C2727      C2728   1.348       .  D
C2727      H2739   1.086       .  S
C2728      C2729   1.490       .  S
C2728      H2740   1.087       .  S
C2729      C2730   1.404       .  A
C2729      C2734   1.407       .  A
C2730      C2731   1.400       .  A
C2730      H2741   1.083       .  S
C2731      C2732   1.406       .  A
C2731      H2742   1.083       .  S
C2732      C2733   1.409       .  A
C2733      C2734   1.403       .  A
C2733      H2743   1.083       .  S
C2734      H2744   1.082       .  S
C2745      C2746   1.407       .  A
C2745      C2750   1.406       .  A
C2746      C2747   1.399       .  A
C2746      H2759   1.084       .  S
C2747      C2748   1.403       .  A
C2747      H2760   1.082       .  S
C2748      C2749   1.411       .  A
C2748      C2751   1.494       .  S
C2749      C2750   1.402       .  A
C2749      H2761   1.082       .  S
C2750      H2762   1.082       .  S
C2751      C2752   1.348       .  D
C2751      H2763   1.083       .  S
C2752      C2753   1.494       .  S
C2752      H2764   1.083       .  S
C2753      C2754   1.402       .  A
C2753      C2758   1.413       .  A
C2754      C2755   1.394       .  A
C2754      H2765   1.083       .  S
C2755      C2756   1.405       .  A
C2755      H2766   1.083       .  S
C2756      C2757   1.405       .  A
C2757      C2758   1.407       .  A
C2757      H2767   1.083       .  S
C2758      H2768   1.081       .  S
C2769      C2770   1.405       .  A
C2769      C2774   1.406       .  A
C2770      C2771   1.395       .  A
C2770      H2783   1.083       .  S
C2771      C2772   1.402       .  A
C2771      H2784   1.084       .  S
C2772      C2773   1.411       .  A
C2772      C2775   1.491       .  S
C2773      C2774   1.406       .  A
C2773      H2785   1.081       .  S
C2774      H2786   1.083       .  S
C2775      C2776   1.349       .  D
C2775      H2787   1.085       .  S
C2776      C2777   1.494       .  S
C2776      H2788   1.085       .  S
C2777      C2778   1.404       .  A
C2777      C2782   1.410       .  A
C2778      C2779   1.400       .  A
C2778      H2789   1.084       .  S
C2779      C2780   1.408       .  A
C2779      H2790   1.083       .  S
C2780      C2781   1.405       .  A
C2781      C2782   1.401       .  A
C2781      H2791   1.083       .  S
C2782      H2792   1.081       .  S
C2793      C2794   1.406       .  A
C2793      C2798   1.405       .  A
C2794      C2795   1.396       .  A
C2794      H2807   1.083       .  S
C2795      C2796   1.402       .  A
C2795      H2808   1.084       .  S
C2796      C2797   1.412       .  A
C2796      C2799   1.492       .  S
C2797      C2798   1.405       .  A
C2797      H2809   1.081       .  S
C2798      H2810   1.083       .  S
C2799      C2800   1.349       .  D
C2799      H2811   1.085       .  S
C2800      C2801   1.493       .  S
C2800      H2812   1.085       .  S
C2801      C2802   1.403       .  A
C2801      C2806   1.410       .  A
C2802      C2803   1.399       .  A
C2802      H2813   1.083       .  S
C2803      C2804   1.407       .  A
C2803      H2814   1.083       .  S
C2804      C2805   1.407       .  A
C2805      C2806   1.403       .  A
C2805      H2815   1.083       .  S
C2806      H2816   1.081       .  S
C2817      C2818   1.407       .  A
C2817      C2822   1.406       .  A
C2818      C2819   1.395       .  A
C2818      H2831   1.083       .  S
C2819      C2820   1.401       .  A
C2819      H2832   1.084       .  S
C2820      C2821   1.409       .  A
C2820      C2823   1.486       .  S
C2821      C2822   1.401       .  A
C2821      H2833   1.081       .  S
C2822      H2834   1.083       .  S
C2823      C2824   1.346       .  D
C2823      H2835   1.085       .  S
C2824      C2825   1.487       .  S
C2824      H2836   1.085       .  S
C2825      C2826   1.402       .  A
C2825      C2830   1.408       .  A
C2826      C2827   1.397       .  A
C2826      H2837   1.084       .  S
C2827      C2828   1.407       .  A
C2827      H2838   1.083       .  S
C2828      C2829   1.406       .  A
C2829      C2830   1.399       .  A
C2829      H2839   1.083       .  S
C2830      H2840   1.081       .  S
C2841      C2842   1.407       .  A
C2841      C2846   1.405       .  A
C2842      C2843   1.398       .  A
C2842      H2855   1.083       .  S
C2843      C2844   1.402       .  A
C2843      H2856   1.083       .  S
C2844      C2845   1.410       .  A
C2844      C2847   1.491       .  S
C2845      C2846   1.401       .  A
C2845      H2857   1.081       .  S
C2846      H2858   1.083   1_455  S
C2847      C2848   1.347       .  D
C2847      H2859   1.085       .  S
C2848      C2849   1.487       .  S
C2848      H2860   1.085       .  S
C2849      C2850   1.400       .  A
C2849      C2854   1.411       .  A
C2850      C2851   1.394       .  A
C2850      H2861   1.084       .  S
C2851      C2852   1.406       .  A
C2851      H2862   1.083       .  S
C2852      C2853   1.405       .  A
C2853      C2854   1.405       .  A
C2853      H2863   1.083       .  S
C2854      H2864   1.082       .  S
C2865      C2866   1.406       .  A
C2865      C2870   1.405       .  A
C2866      C2867   1.401       .  A
C2866      H2879   1.083       .  S
C2867      C2868   1.406       .  A
C2867      H2880   1.083       .  S
C2868      C2869   1.410       .  A
C2868      C2871   1.496       .  S
C2869      C2870   1.399       .  A
C2869      H2881   1.080       .  S
C2870      H2882   1.083       .  S
C2871      C2872   1.349       .  D
C2871      H2883   1.085       .  S
C2872      C2873   1.488       .  S
C2872      H2884   1.083       .  S
C2873      C2874   1.402       .  A
C2873      C2878   1.411       .  A
C2874      C2875   1.393       .  A
C2874      H2885   1.084       .  S
C2875      C2876   1.403       .  A
C2875      H2886   1.084       .  S
C2876      C2877   1.404       .  A
C2877      C2878   1.406       .  A
C2877      H2887   1.083       .  S
C2878      H2888   1.082       .  S
C2889      C2890   1.407       .  A
C2889      C2894   1.406       .  A
C2890      C2891   1.404       .  A
C2890      H2903   1.083       .  S
C2891      C2892   1.406       .  A
C2891      H2904   1.083       .  S
C2892      C2893   1.411       .  A
C2892      C2895   1.501       .  S
C2893      C2894   1.401       .  A
C2893      H2905   1.080       .  S
C2894      H2906   1.083       .  S
C2895      C2896   1.350       .  D
C2895      H2907   1.085       .  S
C2896      C2897   1.494       .  S
C2896      H2908   1.083       .  S
C2897      C2898   1.402       .  A
C2897      C2902   1.412       .  A
C2898      C2899   1.393       .  A
C2898      H2909   1.084       .  S
C2899      C2900   1.404       .  A
C2899      H2910   1.083       .  S
C2900      C2901   1.407       .  A
C2901      C2902   1.410       .  A
C2901      H2911   1.083       .  S
C2902      H2912   1.081       .  S
C2913      C2914   1.405       .  A
C2913      C2918   1.407       .  A
C2914      C2915   1.395       .  A
C2914      H2927   1.083       .  S
C2915      C2916   1.399       .  A
C2915      H2928   1.083       .  S
C2916      C2917   1.406       .  A
C2916      C2919   1.478       .  S
C2917      C2918   1.405       .  A
C2917      H2929   1.083       .  S
C2918      H2930   1.083       .  S
C2919      C2920   1.344       .  D
C2919      H2931   1.087       .  S
C2920      C2921   1.485       .  S
C2920      H2932   1.087       .  S
C2921      C2922   1.405       .  A
C2921      C2926   1.403       .  A
C2922      C2923   1.405       .  A
C2922      H2933   1.083       .  S
C2923      C2924   1.407       .  A
C2923      H2934   1.083       .  S
C2924      C2925   1.407       .  A
C2925      C2926   1.394       .  A
C2925      H2935   1.083       .  S
C2926      H2936   1.083       .  S
C2937      C2938   1.406       .  A
C2937      C2942   1.406       .  A
C2938      C2939   1.395       .  A
C2938      H2951   1.083       .  S
C2939      C2940   1.401       .  A
C2939      H2952   1.084       .  S
C2940      C2941   1.410       .  A
C2940      C2943   1.489       .  S
C2941      C2942   1.407       .  A
C2941      H2953   1.082       .  S
C2942      H2954   1.083       .  S
C2943      C2944   1.349       .  D
C2943      H2955   1.084       .  S
C2944      C2945   1.496       .  S
C2944      H2956   1.086       .  S
C2945      C2946   1.405       .  A
C2945      C2950   1.410       .  A
C2946      C2947   1.402       .  A
C2946      H2957   1.083       .  S
C2947      C2948   1.407       .  A
C2947      H2958   1.083       .  S
C2948      C2949   1.405       .  A
C2949      C2950   1.399       .  A
C2949      H2959   1.083       .  S
C2950      H2960   1.080       .  S
C2961      C2962   1.406       .  A
C2961      C2966   1.407       .  A
C2962      C2963   1.405       .  A
C2962      H2975   1.083       .  S
C2963      C2964   1.406       .  A
C2963      H2976   1.083       .  S
C2964      C2965   1.405       .  A
C2964      C2967   1.489       .  S
C2965      C2966   1.395       .  A
C2965      H2977   1.082       .  S
C2966      H2978   1.083       .  S
C2967      C2968   1.348       .  D
C2967      H2979   1.086       .  S
C2968      C2969   1.486       .  S
C2968      H2980   1.086       .  S
C2969      C2970   1.403       .  A
C2969      C2974   1.407       .  A
C2970      C2971   1.398       .  A
C2970      H2981   1.083       .  S
C2971      C2972   1.405       .  A
C2971      H2982   1.083       .  S
C2972      C2973   1.407       .  A
C2973      C2974   1.402       .  A
C2973      H2983   1.083       .  S
C2974      H2984   1.082       .  S
C2985      C2986   1.407       .  A
C2985      C2990   1.408       .  A
C2986      C2987   1.406       .  A
C2986      H2999   1.083       .  S
C2987      C2988   1.406       .  A
C2987      H3000   1.083       .  S
C2988      C2989   1.405       .  A
C2988      C2991   1.491       .  S
C2989      C2990   1.395       .  A
C2989      H3001   1.082       .  S
C2990      H3002   1.083       .  S
C2991      C2992   1.350       .  D
C2991      H3003   1.085       .  S
C2992      C2993   1.489       .  S
C2992      H3004   1.086       .  S
C2993      C2994   1.404       .  A
C2993      C2998   1.408       .  A
C2994      C2995   1.397       .  A
C2994      H3005   1.084       .  S
C2995      C2996   1.405       .  A
C2995      H3006   1.083       .  S
C2996      C2997   1.409       .  A
C2997      C2998   1.404       .  A
C2997      H3007   1.083       .  S
C2998      H3008   1.082       .  S
C3009      C3010   1.406       .  A
C3009      C3014   1.406       .  A
C3010      C3011   1.393       .  A
C3010      H3023   1.083       .  S
C3011      C3012   1.401       .  A
C3011      H3024   1.084       .  S
C3012      C3013   1.412       .  A
C3012      C3015   1.491       .  S
C3013      C3014   1.408       .  A
C3013      H3025   1.081       .  S
C3014      H3026   1.083       .  S
C3015      C3016   1.348       .  D
C3015      H3027   1.082       .  S
C3016      C3017   1.499       .  S
C3016      H3028   1.085       .  S
C3017      C3018   1.405       .  A
C3017      C3022   1.413       .  A
C3018      C3019   1.400       .  A
C3018      H3029   1.083       .  S
C3019      C3020   1.407       .  A
C3019      H3030   1.083       .  S
C3020      C3021   1.405       .  A
C3021      C3022   1.401       .  A
C3021      H3031   1.083       .  S
C3022      H3032   1.079       .  S
C3033      C3034   1.405       .  A
C3033      C3038   1.406       .  A
C3034      C3035   1.405       .  A
C3034      H3047   1.083       .  S
C3035      C3036   1.406       .  A
C3035      H3048   1.083       .  S
C3036      C3037   1.404       .  A
C3036      C3039   1.488       .  S
C3037      C3038   1.396       .  A
C3037      H3049   1.083       .  S
C3038      H3050   1.083       .  S
C3039      C3040   1.347       .  D
C3039      H3051   1.086       .  S
C3040      C3041   1.484       .  S
C3040      H3052   1.087       .  S
C3041      C3042   1.402       .  A
C3041      C3046   1.407       .  A
C3042      C3043   1.398       .  A
C3042      H3053   1.083       .  S
C3043      C3044   1.405       .  A
C3043      H3054   1.083       .  S
C3044      C3045   1.406       .  A
C3045      C3046   1.404       .  A
C3045      H3055   1.083       .  S
C3046      H3056   1.083       .  S
C3057      C3058   1.406       .  A
C3057      C3062   1.407       .  A
C3058      C3059   1.400       .  A
C3058      H3071   1.083       .  S
C3059      C3060   1.404       .  A
C3059      H3072   1.083       .  S
C3060      C3061   1.406       .  A
C3060      C3063   1.485       .  S
C3061      C3062   1.396       .  A
C3061      H3073   1.082       .  S
C3062      H3074   1.083       .  S
C3063      C3064   1.347       .  D
C3063      H3075   1.086       .  S
C3064      C3065   1.485       .  S
C3064      H3076   1.086       .  S
C3065      C3066   1.403       .  A
C3065      C3070   1.407       .  A
C3066      C3067   1.397       .  A
C3066      H3077   1.083       .  S
C3067      C3068   1.406       .  A
C3067      H3078   1.083       .  S
C3068      C3069   1.407       .  A
C3069      C3070   1.398       .  A
C3069      H3079   1.083       .  S
C3070      H3080   1.082       .  S
C3081      C3082   1.405       .  A
C3081      C3086   1.407       .  A
C3082      C3083   1.405       .  A
C3082      H3095   1.083       .  S
C3083      C3084   1.407       .  A
C3083      H3096   1.083       .  S
C3084      C3085   1.404       .  A
C3084      C3087   1.488       .  S
C3085      C3086   1.393       .  A
C3085      H3097   1.082       .  S
C3086      H3098   1.083       .  S
C3087      C3088   1.350       .  D
C3087      H3099   1.085       .  S
C3088      C3089   1.487       .  S
C3088      H3100   1.086       .  S
C3089      C3090   1.405       .  A
C3089      C3094   1.406       .  A
C3090      C3091   1.399       .  A
C3090      H3101   1.084       .  S
C3091      C3092   1.405       .  A
C3091      H3102   1.083       .  S
C3092      C3093   1.407       .  A
C3093      C3094   1.399       .  A
C3093      H3103   1.083       .  S
C3094      H3104   1.081       .  S
C3105      C3106   1.406       .  A
C3105      C3110   1.406       .  A
C3106      C3107   1.402       .  A
C3106      H3119   1.083       .  S
C3107      C3108   1.406       .  A
C3107      H3120   1.084       .  S
C3108      C3109   1.410       .  A
C3108      C3111   1.498       .  S
C3109      C3110   1.399       .  A
C3109      H3121   1.079       .  S
C3110      H3122   1.083       .  S
C3111      C3112   1.350       .  D
C3111      H3123   1.086       .  S
C3112      C3113   1.491       .  S
C3112      H3124   1.083       .  S
C3113      C3114   1.402       .  A
C3113      C3118   1.411       .  A
C3114      C3115   1.394       .  A
C3114      H3125   1.084       .  S
C3115      C3116   1.406       .  A
C3115      H3126   1.083       .  S
C3116      C3117   1.406       .  A
C3117      C3118   1.406       .  A
C3117      H3127   1.083       .  S
C3118      H3128   1.081       .  S
C3129      C3130   1.407       .  A
C3129      C3134   1.405       .  A
C3130      C3131   1.401       .  A
C3130      H3143   1.083       .  S
C3131      C3132   1.404       .  A
C3131      H3144   1.083       .  S
C3132      C3133   1.412       .  A
C3132      C3135   1.497       .  S
C3133      C3134   1.401       .  A
C3133      H3145   1.080       .  S
C3134      H3146   1.083       .  S
C3135      C3136   1.348       .  D
C3135      H3147   1.084       .  S
C3136      C3137   1.494       .  S
C3136      H3148   1.084       .  S
C3137      C3138   1.401       .  A
C3137      C3142   1.413       .  A
C3138      C3139   1.391       .  A
C3138      H3149   1.084       .  S
C3139      C3140   1.408       .  A
C3139      H3150   1.083       .  S
C3140      C3141   1.407       .  A
C3141      C3142   1.410       .  A
C3141      H3151   1.083       .  S
C3142      H3152   1.080       .  S
C3153      C3154   1.405       .  A
C3153      C3158   1.408       .  A
C3154      C3155   1.397       .  A
C3154      H3167   1.083       .  S
C3155      C3156   1.404       .  A
C3155      H3168   1.084       .  S
C3156      C3157   1.408       .  A
C3156      C3159   1.489       .  S
C3157      C3158   1.403       .  A
C3157      H3169   1.081       .  S
C3158      H3170   1.083       .  S
C3159      C3160   1.349       .  D
C3159      H3171   1.086       .  S
C3160      C3161   1.491       .  S
C3160      H3172   1.085       .  S
C3161      C3162   1.405       .  A
C3161      C3166   1.406       .  A
C3162      C3163   1.404       .  A
C3162      H3173   1.083       .  S
C3163      C3164   1.407       .  A
C3163      H3174   1.083       .  S
C3164      C3165   1.408       .  A
C3165      C3166   1.395       .  A
C3165      H3175   1.083       .  S
C3166      H3176   1.082       .  S
C3177      C3178   1.405       .  A
C3177      C3182   1.406       .  A
C3178      C3179   1.395       .  A
C3178      H3191   1.083       .  S
C3179      C3180   1.402       .  A
C3179      H3192   1.084       .  S
C3180      C3181   1.412       .  A
C3180      C3183   1.493       .  S
C3181      C3182   1.407       .  A
C3181      H3193   1.081       .  S
C3182      H3194   1.083       .  S
C3183      C3184   1.349       .  D
C3183      H3195   1.085       .  S
C3184      C3185   1.494       .  S
C3184      H3196   1.084       .  S
C3185      C3186   1.403       .  A
C3185      C3190   1.411       .  A
C3186      C3187   1.400       .  A
C3186      H3197   1.083       .  S
C3187      C3188   1.408       .  A
C3187      H3198   1.083       .  S
C3188      C3189   1.405       .  A
C3189      C3190   1.402       .  A
C3189      H3199   1.083       .  S
C3190      H3200   1.081       .  S
C3201      C3202   1.407       .  A
C3201      C3206   1.408       .  A
C3202      C3203   1.406       .  A
C3202      H3215   1.083       .  S
C3203      C3204   1.407       .  A
C3203      H3216   1.083       .  S
C3204      C3205   1.404       .  A
C3204      C3207   1.491       .  S
C3205      C3206   1.395       .  A
C3205      H3217   1.082       .  S
C3206      H3218   1.083       .  S
C3207      C3208   1.350       .  D
C3207      H3219   1.086       .  S
C3208      C3209   1.488       .  S
C3208      H3220   1.086       .  S
C3209      C3210   1.404       .  A
C3209      C3214   1.407       .  A
C3210      C3211   1.398       .  A
C3210      H3221   1.083       .  S
C3211      C3212   1.405       .  A
C3211      H3222   1.083       .  S
C3212      C3213   1.408       .  A
C3213      C3214   1.403       .  A
C3213      H3223   1.083       .  S
C3214      H3224   1.082       .  S
C3225      C3226   1.407       .  A
C3225      C3230   1.406       .  A
C3226      C3227   1.402       .  A
C3226      H3239   1.083       .  S
C3227      C3228   1.405       .  A
C3227      H3240   1.083       .  S
C3228      C3229   1.411       .  A
C3228      C3231   1.499       .  S
C3229      C3230   1.402       .  A
C3229      H3241   1.080       .  S
C3230      H3242   1.083       .  S
C3231      C3232   1.350       .  D
C3231      H3243   1.085       .  S
C3232      C3233   1.493       .  S
C3232      H3244   1.083       .  S
C3233      C3234   1.402       .  A
C3233      C3238   1.411       .  A
C3234      C3235   1.396       .  A
C3234      H3245   1.084       .  S
C3235      C3236   1.406       .  A
C3235      H3246   1.083       .  S
C3236      C3237   1.406       .  A
C3237      C3238   1.408       .  A
C3237      H3247   1.083       .  S
C3238      H3248   1.082       .  S
C3249      C3250   1.407       .  A
C3249      C3254   1.406       .  A
C3250      C3251   1.400       .  A
C3250      H3263   1.083       .  S
C3251      C3252   1.404       .  A
C3251      H3264   1.083       .  S
C3252      C3253   1.411       .  A
C3252      C3255   1.495       .  S
C3253      C3254   1.403       .  A
C3253      H3265   1.081       .  S
C3254      H3266   1.083       .  S
C3255      C3256   1.349       .  D
C3255      H3267   1.085       .  S
C3256      C3257   1.493       .  S
C3256      H3268   1.085       .  S
C3257      C3258   1.402       .  A
C3257      C3262   1.412       .  A
C3258      C3259   1.396       .  A
C3258      H3269   1.084       .  S
C3259      C3260   1.405       .  A
C3259      H3270   1.083       .  S
C3260      C3261   1.405       .  A
C3261      C3262   1.407       .  A
C3261      H3271   1.083       .  S
C3262      H3272   1.081       .  S
C3273      C3274   1.406       .  A
C3273      C3278   1.406       .  A
C3274      C3275   1.397       .  A
C3274      H3287   1.083       .  S
C3275      C3276   1.403       .  A
C3275      H3288   1.083       .  S
C3276      C3277   1.408       .  A
C3276      C3279   1.487       .  S
C3277      C3278   1.399       .  A
C3277      H3289   1.081       .  S
C3278      H3290   1.083       .  S
C3279      C3280   1.348       .  D
C3279      H3291   1.084       .  S
C3280      C3281   1.489       .  S
C3280      H3292   1.085       .  S
C3281      C3282   1.404       .  A
C3281      C3286   1.408       .  A
C3282      C3283   1.398       .  A
C3282      H3293   1.083       .  S
C3283      C3284   1.405       .  A
C3283      H3294   1.083       .  S
C3284      C3285   1.407       .  A
C3285      C3286   1.398       .  A
C3285      H3295   1.083       .  S
C3286      H3296   1.080       .  S
C3297      C3298   1.405       .  A
C3297      C3302   1.407       .  A
C3298      C3299   1.397       .  A
C3298      H3311   1.083       .  S
C3299      C3300   1.404       .  A
C3299      H3312   1.084       .  S
C3300      C3301   1.409       .  A
C3300      C3303   1.490       .  S
C3301      C3302   1.402       .  A
C3301      H3313   1.081       .  S
C3302      H3314   1.083       .  S
C3303      C3304   1.350       .  D
C3303      H3315   1.085       .  S
C3304      C3305   1.492       .  S
C3304      H3316   1.085       .  S
C3305      C3306   1.407       .  A
C3305      C3310   1.406       .  A
C3306      C3307   1.404       .  A
C3306      H3317   1.083       .  S
C3307      C3308   1.406       .  A
C3307      H3318   1.083       .  S
C3308      C3309   1.407       .  A
C3309      C3310   1.395       .  A
C3309      H3319   1.083       .  S
C3310      H3320   1.081       .  S
C3321      C3322   1.407       .  A
C3321      C3326   1.408       .  A
C3322      C3323   1.405       .  A
C3322      H3335   1.083       .  S
C3323      C3324   1.406       .  A
C3323      H3336   1.083       .  S
C3324      C3325   1.405       .  A
C3324      C3327   1.490       .  S
C3325      C3326   1.395       .  A
C3325      H3337   1.082       .  S
C3326      H3338   1.083       .  S
C3327      C3328   1.350       .  D
C3327      H3339   1.086       .  S
C3328      C3329   1.489       .  S
C3328      H3340   1.087       .  S
C3329      C3330   1.404       .  A
C3329      C3334   1.408       .  A
C3330      C3331   1.398       .  A
C3330      H3341   1.084       .  S
C3331      C3332   1.405       .  A
C3331      H3342   1.083   1_455  S
C3332      C3333   1.408       .  A
C3333      C3334   1.402       .  A
C3333      H3343   1.083       .  S
C3334      H3344   1.081       .  S
C3345      C3346   1.407       .  A
C3345      C3350   1.407       .  A
C3346      C3347   1.394       .  A
C3346      H3359   1.083       .  S
C3347      C3348   1.401       .  A
C3347      H3360   1.084       .  S
C3348      C3349   1.411       .  A
C3348      C3351   1.490       .  S
C3349      C3350   1.407       .  A
C3349      H3361   1.081       .  S
C3350      H3362   1.083       .  S
C3351      C3352   1.347       .  D
C3351      H3363   1.085       .  S
C3352      C3353   1.493       .  S
C3352      H3364   1.085       .  S
C3353      C3354   1.403       .  A
C3353      C3358   1.410       .  A
C3354      C3355   1.399       .  A
C3354      H3365   1.083       .  S
C3355      C3356   1.407       .  A
C3355      H3366   1.083       .  S
C3356      C3357   1.406       .  A
C3357      C3358   1.402       .  A
C3357      H3367   1.083       .  S
C3358      H3368   1.081       .  S
C3369      C3370   1.406       .  A
C3369      C3374   1.407       .  A
C3370      C3371   1.397       .  A
C3370      H3383   1.083       .  S
C3371      C3372   1.402       .  A
C3371      H3384   1.084       .  S
C3372      C3373   1.406       .  A
C3372      C3375   1.482       .  S
C3373      C3374   1.399       .  A
C3373      H3385   1.082       .  S
C3374      H3386   1.083       .  S
C3375      C3376   1.346   1_455  D
C3375      H3387   1.086       .  S
C3376      C3377   1.483       .  S
C3376      H3388   1.086       .  S
C3377      C3378   1.403       .  A
C3377      C3382   1.405       .  A
C3378      C3379   1.399       .  A
C3378      H3389   1.083       .  S
C3379      C3380   1.407       .  A
C3379      H3390   1.083       .  S
C3380      C3381   1.407       .  A
C3381      C3382   1.397       .  A
C3381      H3391   1.083       .  S
C3382      H3392   1.082       .  S
C3393      C3394   1.403       .  A
C3393      C3398   1.406       .  A
C3394      C3395   1.392       .  A
C3394      H3407   1.083       .  S
C3395      C3396   1.401       .  A
C3395      H3408   1.084       .  S
C3396      C3397   1.410       .  A
C3396      C3399   1.486       .  S
C3397      C3398   1.405       .  A
C3397      H3409   1.082       .  S
C3398      H3410   1.083       .  S
C3399      C3400   1.349       .  D
C3399      H3411   1.082       .  S
C3400      C3401   1.496       .  S
C3400      H3412   1.086       .  S
C3401      C3402   1.406       .  A
C3401      C3406   1.410       .  A
C3402      C3403   1.401       .  A
C3402      H3413   1.083       .  S
C3403      C3404   1.406       .  A
C3403      H3414   1.083       .  S
C3404      C3405   1.405       .  A
C3405      C3406   1.397       .  A
C3405      H3415   1.083       .  S
C3406      H3416   1.079       .  S
C3417      C3418   1.405       .  A
C3417      C3422   1.404       .  A
C3418      C3419   1.395       .  A
C3418      H3431   1.083       .  S
C3419      C3420   1.401       .  A
C3419      H3432   1.084       .  S
C3420      C3421   1.409       .  A
C3420      C3423   1.485       .  S
C3421      C3422   1.404       .  A
C3421      H3433   1.082       .  S
C3422      H3434   1.083       .  S
C3423      C3424   1.346       .  D
C3423      H3435   1.086       .  S
C3424      C3425   1.488       .  S
C3424      H3436   1.087       .  S
C3425      C3426   1.402       .  A
C3425      C3430   1.408       .  A
C3426      C3427   1.398       .  A
C3426      H3437   1.084       .  S
C3427      C3428   1.406       .  A
C3427      H3438   1.083       .  S
C3428      C3429   1.407       .  A
C3429      C3430   1.402       .  A
C3429      H3439   1.083       .  S
C3430      H3440   1.082       .  S
C3441      C3442   1.404       .  A
C3441      C3446   1.405       .  A
C3442      C3443   1.393       .  A
C3442      H3455   1.083       .  S
C3443      C3444   1.401       .  A
C3443      H3456   1.084       .  S
C3444      C3445   1.410       .  A
C3444      C3447   1.485       .  S
C3445      C3446   1.406       .  A
C3445      H3457   1.082       .  S
C3446      H3458   1.083       .  S
C3447      C3448   1.348       .  D
C3447      H3459   1.085       .  S
C3448      C3449   1.490       .  S
C3448      H3460   1.086       .  S
C3449      C3450   1.404       .  A
C3449      C3454   1.408       .  A
C3450      C3451   1.401       .  A
C3450      H3461   1.083       .  S
C3451      C3452   1.407       .  A
C3451      H3462   1.083       .  S
C3452      C3453   1.405       .  A
C3453      C3454   1.397       .  A
C3453      H3463   1.083       .  S
C3454      H3464   1.081       .  S
C3465      C3466   1.408       .  A
C3465      C3470   1.404       .  A
C3466      C3467   1.400       .  A
C3466      H3479   1.083       .  S
C3467      C3468   1.404       .  A
C3467      H3480   1.083       .  S
C3468      C3469   1.412       .  A
C3468      C3471   1.497       .  S
C3469      C3470   1.401       .  A
C3469      H3481   1.080       .  S
C3470      H3482   1.083       .  S
C3471      C3472   1.347       .  D
C3471      H3483   1.085       .  S
C3472      C3473   1.490       .  S
C3472      H3484   1.083       .  S
C3473      C3474   1.399       .  A
C3473      C3478   1.411       .  A
C3474      C3475   1.391       .  A
C3474      H3485   1.084       .  S
C3475      C3476   1.407       .  A
C3475      H3486   1.083       .  S
C3476      C3477   1.408       .  A
C3477      C3478   1.409       .  A
C3477      H3487   1.083       .  S
C3478      H3488   1.082       .  S
C3489      C3490   1.407       .  A
C3489      C3494   1.406       .  A
C3490      C3491   1.398       .  A
C3490      H3503   1.083       .  S
C3491      C3492   1.402       .  A
C3491      H3504   1.083       .  S
C3492      C3493   1.410       .  A
C3492      C3495   1.490       .  S
C3493      C3494   1.403       .  A
C3493      H3505   1.082       .  S
C3494      H3506   1.083   1_545  S
C3495      C3496   1.347       .  D
C3495      H3507   1.084       .  S
C3496      C3497   1.493       .  S
C3496      H3508   1.086       .  S
C3497      C3498   1.403       .  A
C3497      C3502   1.411       .  A
C3498      C3499   1.396       .  A
C3498      H3509   1.083       .  S
C3499      C3500   1.406       .  A
C3499      H3510   1.083       .  S
C3500      C3501   1.406       .  A
C3501      C3502   1.405       .  A
C3501      H3511   1.083       .  S
C3502      H3512   1.081       .  S
C3513      C3514   1.407       .  A
C3513      C3518   1.406       .  A
C3514      C3515   1.393       .  A
C3514      H3527   1.083       .  S
C3515      C3516   1.401       .  A
C3515      H3528   1.084       .  S
C3516      C3517   1.411       .  A
C3516      C3519   1.489       .  S
C3517      C3518   1.407       .  A
C3517      H3529   1.081       .  S
C3518      H3530   1.083       .  S
C3519      C3520   1.346       .  D
C3519      H3531   1.086       .  S
C3520      C3521   1.489       .  S
C3520      H3532   1.085       .  S
C3521      C3522   1.402       .  A
C3521      C3526   1.409       .  A
C3522      C3523   1.398       .  A
C3522      H3533   1.083       .  S
C3523      C3524   1.408       .  A
C3523      H3534   1.083       .  S
C3524      C3525   1.404       .  A
C3525      C3526   1.400       .  A
C3525      H3535   1.083   1_455  S
C3526      H3536   1.082       .  S
