geometry optimzed in LAMMPS
_audit_creation_date              2020-11-30 
_audit_creation_method            'lammps2cif' 
_symmetry_space_group_name_H-M    'P1' 
_symmetry_Int_Tables_number       1 
_symmetry_cell_setting            triclinic 
loop_ 
_symmetry_equiv_pos_as_xyz 
  x,y,z 
_cell_length_a                    40.19474073 
_cell_length_b                    40.17664659790284 
_cell_length_c                    32.31906990576881 
_cell_angle_alpha                 90.0706339594323 
_cell_angle_beta                  90.632684910413 
_cell_angle_gamma                 120.2336570437036 
loop_ 
_atom_site_label 
_atom_site_type_symbol 
_atom_site_fract_x 
_atom_site_fract_y 
_atom_site_fract_z 
_atom_site_charge 
C1          C  0.12952019  0.46732196  0.13663724     0.03300
C2          C  0.10197193  0.46238286  0.10672901    -0.12900
C3          C  0.09153146  0.49038670  0.10150962     0.00800
C4          C  0.10776540  0.02314621  0.12702218    -0.11400
C5          C  0.13556017  0.02929475  0.15797457     0.03300
C6          C  0.14692102  0.50113602  0.16106588    -0.10800
H7          H  0.08770829  0.43610309  0.08836092     0.08900
H8          H  0.09816290  0.04331482  0.12168185     0.06400
H9          H  0.16843115  0.50381555  0.18290301     0.06200
C10         C  0.15956082  0.12728828  0.20567055     0.03300
C11         C  0.13970485  0.09168641  0.18453434    -0.12900
C12         C  0.15235655  0.06451820  0.18639362     0.00800
C13         C  0.18227035  0.07235601  0.21511206    -0.11400
C14         C  0.20049292  0.10667525  0.23856854     0.03300
C15         C  0.18990824  0.13451003  0.23249025    -0.10800
H16         H  0.11581630  0.08712033  0.16534794     0.08900
H17         H  0.19269641  0.05272303  0.21928120     0.06400
H18         H  0.20564315  0.16219683  0.24814328     0.06200
C19         C  0.47266501  0.11260081  0.12770970     0.03300
C20         C  0.43858225  0.09650591  0.15083879    -0.12900
C21         C  0.41172906  0.05634864  0.14991941     0.00800
C22         C  0.41769110  0.03424182  0.11992814    -0.11400
C23         C  0.44981258  0.05099424  0.09423125     0.03300
C24         C  0.47782986  0.08949885  0.09931309    -0.10800
H25         H  0.43503894  0.11590160  0.17080553     0.08900
H26         H  0.39820717  0.00383786  0.11578231     0.06400
H27         H  0.00457204  0.10098056  0.08225657     0.06200
C28         C  0.31594454  0.48241259  0.19921887     0.03300
C29         C  0.35042413  0.49816011  0.17705904    -0.12900
C30         C  0.37823567  0.03787112  0.17967572     0.00800
C31         C  0.37292167  0.05971394  0.21054020    -0.11400
C32         C  0.33932662  0.04384627  0.23433137     0.03300
C33         C  0.31039089  0.00562023  0.22734141    -0.10800
H34         H  0.35367487  0.47875395  0.15680313     0.08900
H35         H  0.39410533  0.08940515  0.21621270     0.06400
H36         H  0.28341959  0.49386839  0.24336831     0.06200
C37         C  0.45852245  0.27866332  0.19363365     0.03300
C38         C  0.43661949  0.25228675  0.22400697    -0.12900
C39         C  0.39907093  0.24402915  0.23212659     0.00800
C40         C  0.38269727  0.26154535  0.20821663    -0.11400
C41         C  0.40304404  0.28640568  0.17522776     0.03300
C42         C  0.44166760  0.29550140  0.16951188    -0.10800
H43         H  0.44909841  0.23809778  0.24139732     0.08900
H44         H  0.35385159  0.25493851  0.21533044     0.06400
H45         H  0.45914258  0.31469779  0.14552009     0.06200
C46         C  0.32739084  0.30557651  0.12274122     0.03300
C47         C  0.35068760  0.33549981  0.09599372    -0.12900
C48         C  0.39014437  0.34901526  0.09453103     0.00800
C49         C  0.40694106  0.33414469  0.12116669    -0.11400
C50         C  0.38430715  0.30244445  0.14682831     0.03300
C51         C  0.34384191  0.28721152  0.14542363    -0.10800
H52         H  0.33866951  0.34996311  0.07830301     0.08900
H53         H  0.43791606  0.34829485  0.12139203     0.06400
H54         H  0.32475624  0.26274866  0.16393666     0.06200
C55         C  0.14788350  0.33356897  0.16512044     0.02400
C56         C  0.11091304  0.29875305  0.16434645     0.02400
C57         C  0.10875739  0.26195403  0.16335917     0.02400
C58         C  0.14331412  0.25975980  0.16489158     0.02400
C59         C  0.18024332  0.29429238  0.16358353     0.02400
C60         C  0.18253680  0.33119350  0.16537460     0.02400
O61         O  0.37137401  0.14707229  0.41581091    -0.78400
C62         C  0.29694911  0.19335473  0.40628343     0.82700
O63         O  0.24595549  0.04430778  0.36110496    -0.79500
O64         O  0.25373700  0.14808917  0.28198899    -0.81000
O65         O  0.38778009  0.19173930  0.27481515    -0.80800
O66         O  0.40588490  0.15498923  0.35919602    -0.79400
Zn67       Zn  0.31757317  0.13061253  0.39539420     1.55700
O68         O  0.34560106  0.21213902  0.27736126    -0.80800
Cd69       Cd  0.36658991  0.14448698  0.31243033     1.59700
Cd70       Cd  0.27606757  0.08123609  0.31388358     1.59600
O71         O  0.36170003  0.10047600  0.27529301    -0.80800
O72         O  0.31612069  0.13247617  0.33548452    -1.91300
Cd73       Cd  0.30406800  0.17277095  0.31680706     1.59900
O74         O  0.29939572  0.05639063  0.27736721    -0.80700
O75         O  0.29834213  0.20070119  0.36775108    -0.79400
C76         C  0.25280550  0.04697034  0.39985205     0.83200
C77         C  0.40281128  0.15520635  0.39832724     0.82800
O78         O  0.30222161  0.16676737  0.42037383    -0.78300
C79         C  0.37633743  0.21468871  0.26343967     0.83600
O80         O  0.28046236  0.07716096  0.41652509    -0.78400
C81         C  0.33323617  0.06807889  0.26422795     0.83800
C82         C  0.23221278  0.11418234  0.26752184     0.84100
O83         O  0.23756383  0.08645727  0.27672651    -0.80900
C84         C  0.28844162  0.43833481  0.52893430     0.03300
C85         C  0.26472907  0.41213457  0.55872596    -0.12900
C86         C  0.22788801  0.40614830  0.56571434     0.00800
C87         C  0.21297988  0.42416687  0.54059869    -0.11400
C88         C  0.23521941  0.44981053  0.50891372     0.03300
C89         C  0.27371279  0.45758314  0.50501827    -0.10800
H90         H  0.27451978  0.39546540  0.57594949     0.08900
H91         H  0.18407736  0.41780490  0.54668263     0.06400
H92         H  0.29272992  0.47764159  0.48253247     0.06200
C93         C  0.16363451  0.47384985  0.45377957     0.03300
C94         C  0.18791914  0.00212478  0.42632480    -0.12900
C95         C  0.22720996  0.01458205  0.42623367     0.00800
C96         C  0.24245803  0.49840010  0.45345393    -0.11400
C97         C  0.21844022  0.46772040  0.47993849     0.03300
C98         C  0.17843113  0.45540115  0.47891070    -0.10800
H99         H  0.17692214  0.01693218  0.40756060     0.08900
H100        H  0.27316309  0.01070889  0.45357934     0.06400
H101        H  0.15838357  0.43312568  0.49901351     0.06200
C102        C  0.14720978  0.15440151  0.52620997     0.03300
C103        C  0.18339065  0.16750953  0.50810490    -0.12900
C104        C  0.21421317  0.20557571  0.51493289     0.00800
C105        C  0.20931637  0.22754255  0.54600975    -0.11400
C106        C  0.17354860  0.21404407  0.56450353     0.03300
C107        C  0.14226110  0.17899934  0.55248758    -0.10800
H108        H  0.18628120  0.14784315  0.48788814     0.08900
H109        H  0.23257113  0.25525834  0.55609471     0.06400
H110        H  0.11409084  0.17022494  0.56494366     0.06200
C111        C  0.30989807  0.27931271  0.46587723     0.03300
C112        C  0.31601623  0.25629338  0.43823129    -0.12900
C113        C  0.28984330  0.21690630  0.43552868     0.00800
C114        C  0.25796937  0.20002016  0.46172252    -0.11400
C115        C  0.24994536  0.22286160  0.48869842     0.03300
C116        C  0.27604480  0.26309728  0.48899248    -0.10800
H117        H  0.34210202  0.26875060  0.42016416     0.08900
H118        H  0.23981681  0.16914762  0.46000326     0.06400
H119        H  0.27163389  0.28256980  0.50801398     0.06200
C120        C  0.00275067  0.29722079  0.52906323     0.03300
C121        C  0.49792542  0.27113540  0.49694553    -0.12900
C122        C  0.50133855  0.23834104  0.50444389     0.00800
C123        C  0.01688294  0.23619330  0.54287484    -0.11400
C124        C  0.02572918  0.26400896  0.57376278     0.03300
C125        C  0.01468056  0.29164842  0.56836111    -0.10800
H126        H  0.49128395  0.27625905  0.46593696     0.08900
H127        H  0.02336422  0.21362811  0.54908754     0.06400
H128        H  0.01856625  0.31069308  0.59392550     0.06200
C129        C  0.47836617  0.14275664  0.45356481     0.03300
C130        C  0.49958118  0.17868850  0.47403175    -0.12900
C131        C  0.48660345  0.20563443  0.47365333     0.00800
C132        C  0.45500596  0.19777921  0.44768902    -0.11400
C133        C  0.43635784  0.16386193  0.42409434     0.03300
C134        C  0.44743880  0.13623397  0.42779607    -0.10800
H135        H  0.02411487  0.18374421  0.49301933     0.08900
H136        H  0.44348623  0.21696893  0.44687826     0.06400
H137        H  0.43039979  0.10856363  0.41241559     0.06200
C138        C  0.48291866  0.43084155  0.49537053     0.02400
C139        C  0.44608542  0.42897871  0.49516346     0.02400
C140        C  0.44357304  0.46350415  0.49604251     0.02400
C141        C  0.47818384  0.50022462  0.49412440     0.02400
C142        C  0.01494310  0.00213848  0.49443195     0.02400
C143        C  0.01780457  0.46791144  0.49361430     0.02400
C144        C  0.30705885  0.30167907  0.78869528     0.03300
C145        C  0.27631688  0.29526852  0.76265766    -0.12900
C146        C  0.26683893  0.32408556  0.75663437     0.00800
C147        C  0.28815078  0.35929318  0.77790501    -0.11400
C148        C  0.31919022  0.36641624  0.80458466     0.03300
C149        C  0.32922700  0.33755576  0.80832952    -0.10800
H150        H  0.25910956  0.26722443  0.74812020     0.08900
H151        H  0.27879536  0.38013102  0.77532171     0.06400
H152        H  0.35302492  0.34173921  0.82790731     0.06200
C153        C  0.34287507  0.46344965  0.85040788     0.03300
C154        C  0.33585348  0.43481767  0.82083166    -0.12900
C155        C  0.33716409  0.40153815  0.83201086     0.00800
C156        C  0.35376012  0.40168195  0.87080097    -0.11400
C157        C  0.36545404  0.43271781  0.89843767     0.03300
C158        C  0.35512496  0.46027589  0.89012151    -0.10800
H159        H  0.32866737  0.43817383  0.78937684     0.08900
H160        H  0.35842558  0.37842235  0.87962366     0.06400
H161        H  0.35970229  0.48122684  0.91388961     0.06200
C162        C  0.14859456  0.44091478  0.80941528     0.03300
C163        C  0.15215439  0.41846365  0.77884149    -0.12900
C164        C  0.12241064  0.38077811  0.77111774     0.00800
C165        C  0.08851779  0.36589764  0.79450947    -0.11400
C166        C  0.08445527  0.38775531  0.82665372     0.03300
C167        C  0.11541385  0.42572577  0.83335942    -0.10800
H168        H  0.17850515  0.43065947  0.76122779     0.08900
H169        H  0.06565941  0.33726524  0.78688586     0.06400
H170        H  0.11497540  0.44433646  0.85662505     0.06200
C171        C  0.47967303  0.32224463  0.85897928     0.03300
C172        C  0.47377791  0.34809638  0.88207329    -0.12900
C173        C  0.00498111  0.38286101  0.89615370     0.00800
C174        C  0.04139976  0.39565157  0.87908726    -0.11400
C175        C  0.04755858  0.37218723  0.85098119     0.03300
C176        C  0.01705117  0.33383043  0.84552116    -0.10800
H177        H  0.44480493  0.33995878  0.89126901     0.08900
H178        H  0.06384775  0.42365069  0.88808123     0.06400
H179        H  0.02139149  0.31261533  0.82996912     0.06200
C180        C  0.12338795  0.10040593  0.85605520     0.03300
C181        C  0.10522988  0.08700457  0.89437316    -0.12900
C182        C  0.06648642  0.07617603  0.89961253     0.00800
C183        C  0.04832870  0.08702830  0.86963287    -0.11400
C184        C  0.06644307  0.10354715  0.83187740     0.03300
C185        C  0.10236337  0.10629087  0.82424912    -0.10800
H186        H  0.12061078  0.08366367  0.92012578     0.08900
H187        H  0.01991787  0.08203203  0.87616737     0.06400
H188        H  0.11432002  0.11371919  0.79362542     0.06200
C189        C  0.49565286  0.13006156  0.78278396     0.03300
C190        C  0.00969722  0.10885080  0.80365183    -0.12900
C191        C  0.04919138  0.11995000  0.80207576     0.00800
C192        C  0.07323905  0.15106126  0.77596638    -0.11400
C193        C  0.05877219  0.17133363  0.75368947     0.03300
C194        C  0.01999046  0.16038176  0.75740374    -0.10800
H195        H  0.48986577  0.08540069  0.82285133     0.08900
H196        H  0.10376614  0.16145884  0.77492466     0.06400
H197        H  0.00886526  0.17694863  0.74232305     0.06200
C198        C  0.31453738  0.16355544  0.82460242     0.02400
C199        C  0.28047436  0.12645798  0.82771387     0.02400
C200        C  0.28443934  0.09264332  0.82782236     0.02400
C201        C  0.32187095  0.09614874  0.82540460     0.02400
C202        C  0.35590636  0.13364949  0.82300540     0.02400
C203        C  0.35199892  0.16710437  0.82422745     0.02400
O204        O  0.02941359  0.47900316  0.08596143    -0.78400
C205        C  0.45709212  0.02700597  0.06619632     0.82700
O206        O  0.41086518  0.37533725  0.02832870    -0.79500
O207        O  0.41645306  0.47543470  0.94306221    -0.81000
O208        O  0.05704441  0.02913419  0.94971649    -0.80800
O209        O  0.06633460  0.48261044  0.03314088    -0.79400
Zn210      Zn  0.47790784  0.46445085  0.06129545     1.55700
O211        O  0.00966131  0.04198843  0.94011231    -0.80800
Cd212      Cd  0.03141175  0.47835377  0.98298605     1.59700
Cd213      Cd  0.43986557  0.41270013  0.98104352     1.59600
O214        O  0.02716994  0.43749157  0.94082213    -0.80800
O215        O  0.47900490  0.46498227  0.00165811    -1.91300
Cd216      Cd  0.46625740  0.00350454  0.97905269     1.59900
O217        O  0.46532541  0.39188206  0.94265426    -0.80700
O218        O  0.45841530  0.03282845  0.02730608    -0.79400
C219        C  0.41466731  0.38076034  0.06726286     0.83200
C220        C  0.06091126  0.48376791  0.07181039     0.82800
O221        O  0.46295016  0.00153529  0.08217444    -0.78300
C222        C  0.04355443  0.04852266  0.93256662     0.83600
O223        O  0.43940758  0.41278035  0.08340775    -0.78400
C224        C  0.49900606  0.40545636  0.92814234     0.83800
C225        C  0.39438701  0.44062928  0.93113857     0.84100
O226        O  0.39900687  0.41332076  0.94367841    -0.80900
O227        O  0.15648438  0.25987008  0.58114021    -0.78400
C228        C  0.05674574  0.27148152  0.60343003     0.82700
O229        O  0.21242930  0.38229048  0.63433061    -0.79500
O230        O  0.09954987  0.32341480  0.73053366    -0.81000
O231        O  0.11717651  0.21245570  0.71845823    -0.80800
O232        O  0.17012539  0.23199006  0.63295442    -0.79400
Zn233      Zn  0.14107025  0.29461453  0.60681210     1.55700
O234        O  0.07211008  0.22931090  0.72029831    -0.80800
Cd235      Cd  0.15989565  0.25626541  0.68393230     1.59700
Cd236      Cd  0.18562532  0.34707289  0.68518283     1.59600
O237        O  0.20978428  0.28176954  0.71904354    -0.80800
O238        O  0.14489748  0.29478153  0.66618924    -1.91300
Cd239      Cd  0.09334515  0.28100180  0.68903370     1.59900
O240        O  0.22787209  0.34405359  0.72019771    -0.80700
O241        O  0.05323201  0.27386410  0.64234756    -0.79400
C242        C  0.20349478  0.37699968  0.59589211     0.83200
C243        C  0.16721387  0.23710576  0.59455167     0.82800
O244        O  0.08799279  0.27719361  0.58782615    -0.78300
C245        C  0.08418573  0.20622004  0.72947739     0.83600
O246        O  0.17522890  0.34591472  0.58207052    -0.78400
C247        C  0.23307773  0.31631396  0.73047196     0.83800
C248        C  0.12771293  0.35680650  0.73973627     0.84100
O249        O  0.16083996  0.36998499  0.72345107    -0.80900
C250        C  0.42819799  0.11459468  0.76646120    -0.01700
C251        C  0.45909234  0.12782825  0.79471616     0.08000
C252        C  0.45871365  0.14667172  0.83115183    -0.01800
C253        C  0.42696122  0.15115403  0.84037033    -0.01800
C254        C  0.39422614  0.13613557  0.81288997     0.08100
C255        C  0.39663888  0.11961838  0.77485226    -0.02000
Br256      Br  0.35956625  0.10901568  0.73102491    -0.00600
Br257      Br  0.42985398  0.09023482  0.71563476    -0.00600
Br258      Br  0.43238844  0.17897582  0.89075338    -0.00600
Br259      Br  0.50351838  0.16815529  0.86789536    -0.00600
C260        C  0.21830257  0.09995458  0.86837972    -0.01700
C261        C  0.24058554  0.12203205  0.83455496     0.08000
C262        C  0.22347532  0.13903316  0.80971784    -0.01800
C263        C  0.18942655  0.13769357  0.82260389    -0.01800
C264        C  0.16392655  0.10815222  0.84934036     0.08100
C265        C  0.17872713  0.08707970  0.86995943    -0.02000
Br266      Br  0.14670826  0.03775339  0.89562264    -0.00600
Br267      Br  0.24216403  0.09545280  0.91816172    -0.00600
Br268      Br  0.18246780  0.18047089  0.80785305    -0.00600
Br269      Br  0.23919861  0.15913743  0.75518580    -0.00600
C270        C  0.44111247  0.26745035  0.80925228    -0.01700
C271        C  0.44674710  0.28287830  0.84966883     0.08000
C272        C  0.42159387  0.25996548  0.88135288    -0.01800
C273        C  0.39040972  0.22304670  0.87205193    -0.01800
C274        C  0.38631879  0.20654179  0.83219251     0.08100
C275        C  0.41359035  0.22860129  0.80151553    -0.02000
Br276      Br  0.41811628  0.20705992  0.75017892    -0.00600
Br277      Br  0.46902699  0.30000709  0.76306445    -0.00600
Br278      Br  0.35864877  0.19153935  0.91699859    -0.00600
Br279      Br  0.43145285  0.27653489  0.93877524    -0.00600
C280        C  0.18919663  0.00907304  0.78713945    -0.01700
C281        C  0.18071601  0.48041414  0.81696770     0.08000
C282        C  0.20500130  0.48826048  0.85157120    -0.01800
C283        C  0.23834135  0.02467724  0.85622008    -0.01800
C284        C  0.24835885  0.05347188  0.82535433     0.08100
C285        C  0.22343702  0.04471013  0.79045922    -0.02000
Br286      Br  0.23950006  0.07754434  0.74250813    -0.00600
Br287      Br  0.15399800  0.99891726  0.74130919    -0.00600
Br288      Br  0.26922838  0.03219074  0.90513095    -0.00600
Br289      Br  0.19308407  0.44799207  0.89150467    -0.00600
C290        C  0.30686538  0.02707693  0.80421527    -0.01700
C291        C  0.32691794  0.06114105  0.82899751     0.08000
C292        C  0.35279913  0.06144208  0.85929954    -0.01800
C293        C  0.36388537  0.03370363  0.85816333    -0.01800
C294        C  0.33852219  0.49728903  0.84046907     0.08100
C295        C  0.30771697  0.49373210  0.81575381    -0.02000
Br296      Br  0.26359697  0.44417896  0.80168637    -0.00600
Br297      Br  0.28221752  0.02390629  0.75210932    -0.00600
Br298      Br  0.41483190  0.04813223  0.87864695    -0.00600
Br299      Br  0.36522760  0.09160956  0.90923476    -0.00600
C300        C  0.29902993  0.25045240  0.83787012    -0.01700
C301        C  0.31225344  0.26876905  0.79955732     0.08000
C302        C  0.32556435  0.25277668  0.76996482    -0.01800
C303        C  0.32468377  0.21796538  0.77806744    -0.01800
C304        C  0.31244327  0.19959042  0.81698401     0.08100
C305        C  0.29926690  0.21624890  0.84686851    -0.02000
Br306      Br  0.27862463  0.19264318  0.89928990    -0.00600
Br307      Br  0.27833571  0.27141279  0.87734685    -0.00600
Br308      Br  0.33143184  0.19115546  0.73210515    -0.00600
Br309      Br  0.34376948  0.27805400  0.71748952    -0.00600
C310        C  0.48510400  0.05158744  0.44371191    -0.01700
C311        C  0.47707909  0.03686764  0.48459005     0.08000
C312        C  0.47108729  0.05892188  0.51510922    -0.01800
C313        C  0.47492245  0.09493889  0.50549458    -0.01800
C314        C  0.48279973  0.10909708  0.46477545     0.08100
C315        C  0.48782534  0.08716140  0.43395025    -0.02000
Br316      Br  0.99843368  0.10582460  0.37785962    -0.00600
Br317      Br  0.98798873  0.02101028  0.39921674    -0.00600
Br318      Br  0.46641079  0.12369781  0.54847876    -0.00600
Br319      Br  0.45410827  0.54106083  0.56988748    -0.00600
C320        C  0.01922623  0.36694694  0.54072241    -0.01700
C321        C  0.49641719  0.33062244  0.52116600     0.08000
C322        C  0.46743311  0.32709598  0.49326545    -0.01800
C323        C  0.46764734  0.36035205  0.47908605    -0.01800
C324        C  0.48623051  0.39503361  0.50306791     0.08100
C325        C  0.00840197  0.39502516  0.53727604    -0.02000
Br326      Br  0.01455368  0.42505661  0.58598532    -0.00600
Br327      Br  0.06802449  0.38245422  0.56771196    -0.00600
Br328      Br  0.44779156  0.35610362  0.42407320    -0.00600
Br329      Br  0.42413605  0.27743185  0.47766182    -0.00600
C330        C  0.35570132  0.34698966  0.44364040    -0.01700
C331        C  0.34158844  0.31894971  0.47480204     0.08000
C332        C  0.36086872  0.32695488  0.51333414    -0.01800
C333        C  0.39413129  0.36282241  0.52082547    -0.01800
C334        C  0.40935158  0.39099812  0.48930451     0.08100
C335        C  0.38982604  0.38241942  0.45043096    -0.02000
Br336      Br  0.41393334  0.41481074  0.40315789    -0.00600
Br337      Br  0.32918008  0.33603054  0.39077093    -0.00600
Br338      Br  0.41888793  0.37024958  0.57381812    -0.00600
Br339      Br  0.34365369  0.28723206  0.55512237    -0.00600
C340        C  0.05768310  0.05672202  0.54220916    -0.01700
C341        C  0.05018070  0.04077898  0.50175425     0.08000
C342        C  0.07557196  0.06256425  0.46964919    -0.01800
C343        C  0.10442558  0.10092743  0.47688300    -0.01800
C344        C  0.11405134  0.11521244  0.51773007     0.08100
C345        C  0.09146438  0.09191399  0.55065525    -0.02000
Br346      Br  0.10855967  0.10547648  0.60769346    -0.00600
Br347      Br  0.02566362  0.52761894  0.58794066    -0.00600
Br348      Br  0.12815935  0.13421361  0.42991473    -0.00600
Br349      Br  0.07576003  0.04096723  0.41678062    -0.00600
C350        C  0.08910218  0.48619759  0.51187006    -0.01700
C351        C  0.05629513  0.46998693  0.48437882     0.08000
C352        C  0.06067298  0.45599216  0.44542806    -0.01800
C353        C  0.09469904  0.45535817  0.43588386    -0.01800
C354        C  0.12615231  0.47101671  0.46375341     0.08100
C355        C  0.12386363  0.48836408  0.50039725    -0.02000
Br356      Br  0.17037361  0.01811293  0.53380675    -0.00600
Br357      Br  0.09043665  0.00478730  0.56674143    -0.00600
Br358      Br  0.09907457  0.43449495  0.38376398    -0.00600
Br359      Br  0.02260498  0.44268114  0.40205782    -0.00600
C360        C  0.35421635  0.45030279  0.55398005    -0.01700
C361        C  0.32800406  0.44441307  0.52126811     0.08000
C362        C  0.34040449  0.44543062  0.48049216    -0.01800
C363        C  0.37949240  0.45920964  0.47260802    -0.01800
C364        C  0.40463565  0.46011341  0.50449921     0.08100
C365        C  0.39022031  0.45347826  0.54548121    -0.02000
Br366      Br  0.42007515  0.45093986  0.59127821    -0.00600
Br367      Br  0.34301216  0.45737088  0.61026295    -0.00600
Br368      Br  0.39650370  0.48424656  0.42051787    -0.00600
Br369      Br  0.30387105  0.42474013  0.43475563    -0.00600
C370        C  0.28032625  0.30368864  0.17383353    -0.01700
C371        C  0.28819338  0.29863139  0.13278263     0.08000
C372        C  0.25954099  0.28956356  0.10207482    -0.01800
C373        C  0.22465979  0.28825358  0.11219599    -0.01800
C374        C  0.21612276  0.29204381  0.15394608     0.08100
C375        C  0.24347995  0.29607378  0.18471750    -0.02000
Br376      Br  0.23126918  0.28313577  0.24137315    -0.00600
Br377      Br  0.32097468  0.32463942  0.21568224    -0.00600
Br378      Br  0.18995598  0.28322344  0.06770111    -0.00600
Br379      Br  0.26804100  0.27916852  0.04603665    -0.00600
C380        C  0.00956957  0.28319902  0.14554525    -0.01700
C381        C  0.99858564  0.28702320  0.18561140     0.05000
C382        C  0.02613060  0.29885131  0.21808875    -0.01800
C383        C  0.06227298  0.30203277  0.21126613    -0.01800
C384        C  0.07407390  0.29990828  0.17062205     0.08100
C385        C  0.04807389  0.29442556  0.13764518    -0.02000
Br386      Br  0.06429332  0.31133907  0.08255124    -0.00600
Br387      Br  0.47173215  0.25991110  0.10146744    -0.00600
Br388      Br  0.09413923  0.30764468  0.25868710    -0.00600
Br389      Br  0.01519826  0.31207578  0.27176018    -0.00600
C390        C  0.26690188  0.41553535  0.22285234    -0.01700
C391        C  0.28424276  0.44234432  0.19062965     0.08000
C392        C  0.27112111  0.43074402  0.14971644    -0.01800
C393        C  0.24287896  0.39250717  0.14108187    -0.01800
C394        C  0.22083068  0.36744001  0.17334654     0.08100
C395        C  0.23401633  0.37923421  0.21461163    -0.02000
Br396      Br  0.20729911  0.34665245  0.26080067    -0.00600
Br397      Br  0.28873915  0.42791544  0.27815329    -0.00600
Br398      Br  0.24313905  0.37516112  0.08614230    -0.00600
Br399      Br  0.28961692  0.46739430  0.10470137    -0.00600
C400        C  0.02381333  0.17897620  0.10471632    -0.01700
C401        C  0.00506518  0.15215794  0.13663067     0.08000
C402        C  0.01876289  0.16250363  0.17756959    -0.01800
C403        C  0.04840221  0.20001044  0.18684372    -0.01800
C404        C  0.07065533  0.22551671  0.15492446     0.08100
C405        C  0.05762168  0.21439214  0.11348028    -0.02000
Br406      Br  0.08654548  0.24609297  0.06759612    -0.00600
Br407      Br  0.50314743  0.16769046  0.04908780    -0.00600
Br408      Br  0.05177592  0.21531189  0.24326214    -0.00600
Br409      Br  0.99984039  0.12457367  0.22147176    -0.00600
C410        C  0.15384981  0.17048081  0.15435653    -0.01700
C411        C  0.15183576  0.15890234  0.19565311     0.08000
C412        C  0.14391024  0.17853691  0.22673386    -0.01800
C413        C  0.14158906  0.21154245  0.21670224    -0.01800
C414        C  0.14159556  0.22205791  0.17473014     0.08100
C415        C  0.14405252  0.19826562  0.14380783    -0.02000
Br416      Br  0.12642389  0.19495528  0.08813638    -0.00600
Br417      Br  0.17317068  0.15083607  0.11169057    -0.00600
Br418      Br  0.14036618  0.24274312  0.26148898    -0.00600
Br419      Br  0.13581826  0.16012768  0.28298171    -0.00600
C420        C  0.15214083  0.38680195  0.11875684    -0.01700
C421        C  0.14961304  0.37206446  0.15923475     0.08000
C422        C  0.14491068  0.39275307  0.19226898    -0.01800
C423        C  0.13423913  0.42048685  0.18434508    -0.01800
C424        C  0.13806160  0.43572100  0.14440884     0.08100
C425        C  0.14975240  0.42033188  0.11219228    -0.02000
Br426      Br  0.16441243  0.44625405  0.05962447    -0.00600
Br427      Br  0.15748978  0.36113517  0.07119142    -0.00600
Br428      Br  0.11275668  0.43591666  0.22883058    -0.00600
Br429      Br  0.16338188  0.39442771  0.24732457    -0.00600
C430        C  0.12973048  0.96741019  0.13649803     0.03300
C431        C  0.10212510  0.96239692  0.10662971    -0.12900
C432        C  0.09161689  0.99035007  0.10141376     0.00800
C433        C  0.10774168  0.52318901  0.12710678    -0.11400
C434        C  0.13545903  0.52924845  0.15811590     0.03300
C435        C  0.14715210  0.00127437  0.16084852    -0.10800
H436        H  0.08785898  0.93609329  0.08829935     0.08900
H437        H  0.09825845  0.54346053  0.12170641     0.06400
H438        H  0.16878147  0.00405620  0.18258989     0.06200
C439        C  0.15953234  0.62724143  0.20582013     0.03300
C440        C  0.13961671  0.59160852  0.18476058    -0.12900
C441        C  0.15232608  0.56448608  0.18650672     0.00800
C442        C  0.18237592  0.57239245  0.21506239    -0.11400
C443        C  0.20060131  0.60670129  0.23853456     0.03300
C444        C  0.18996052  0.63450576  0.23253810    -0.10800
H445        H  0.11561144  0.58696835  0.16569965     0.08900
H446        H  0.19291457  0.55284412  0.21907572     0.06400
H447        H  0.20571079  0.66219810  0.24817706     0.06200
C448        C  0.47265824  0.61263270  0.12744415     0.03300
C449        C  0.43852982  0.59652324  0.15050477    -0.12900
C450        C  0.41181278  0.55633122  0.14976280     0.00800
C451        C  0.41792641  0.53417974  0.11997390    -0.11400
C452        C  0.45000268  0.55094884  0.09422610     0.03300
C453        C  0.47792353  0.58950173  0.09917714    -0.10800
H454        H  0.43483190  0.61593547  0.17030589     0.08900
H455        H  0.39858922  0.50370927  0.11602287     0.06400
H456        H  0.00446719  0.60100466  0.08235526     0.06200
C457        C  0.31597634  0.98233638  0.19951963     0.03300
C458        C  0.35048511  0.99811084  0.17739704    -0.12900
C459        C  0.37829795  0.53787138  0.17948656     0.00800
C460        C  0.37308672  0.55969157  0.21046317    -0.11400
C461        C  0.33945672  0.54387768  0.23420062     0.03300
C462        C  0.31044115  0.50569538  0.22712089    -0.10800
H463        H  0.35385338  0.97869662  0.15729440     0.08900
H464        H  0.39440807  0.58933080  0.21626547     0.06400
H465        H  0.28336449  0.99376516  0.24358971     0.06200
C466        C  0.45855767  0.77866282  0.19341626     0.03300
C467        C  0.43668988  0.75227573  0.22379962    -0.12900
C468        C  0.39915799  0.74402872  0.23199607     0.00800
C469        C  0.38275965  0.76155567  0.20814413    -0.11400
C470        C  0.40306346  0.78641687  0.17514214     0.03300
C471        C  0.44167294  0.79550164  0.16934503    -0.10800
H472        H  0.44918984  0.73808528  0.24114995     0.08900
H473        H  0.35393000  0.75496529  0.21531670     0.06400
H474        H  0.45911410  0.81470194  0.14533314     0.06200
C475        C  0.32734905  0.80559472  0.12283424     0.03300
C476        C  0.35062119  0.83555491  0.09611005    -0.12900
C477        C  0.39008474  0.84910221  0.09462136     0.00800
C478        C  0.40690764  0.83422007  0.12120378    -0.11400
C479        C  0.38429770  0.80247823  0.14682188     0.03300
C480        C  0.34382898  0.78722309  0.14545229    -0.10800
H481        H  0.33857654  0.85001366  0.07845622     0.08900
H482        H  0.43788697  0.84838622  0.12141896     0.06400
H483        H  0.32476417  0.76273271  0.16394472     0.06200
C484        C  0.14785800  0.83354591  0.16533250     0.02400
C485        C  0.11088248  0.79873149  0.16457934     0.02400
C486        C  0.10872732  0.76193067  0.16362767     0.02400
C487        C  0.14328243  0.75973254  0.16516253     0.02400
C488        C  0.18021264  0.79426216  0.16383847     0.02400
C489        C  0.18250950  0.83116425  0.16562083     0.02400
O490        O  0.37151681  0.64712705  0.41573776    -0.78400
C491        C  0.29703766  0.69337604  0.40618226     0.82700
O492        O  0.24610063  0.54435309  0.36104686    -0.79500
O493        O  0.25387876  0.64811867  0.28190932    -0.81000
O494        O  0.38793115  0.69177496  0.27472441    -0.80800
O495        O  0.40602680  0.65499702  0.35913107    -0.79400
Zn496      Zn  0.31771332  0.63066452  0.39531795     1.55700
O497        O  0.34572598  0.71214366  0.27726894    -0.80800
Cd498      Cd  0.36674709  0.64451567  0.31234524     1.59700
Cd499      Cd  0.27621873  0.58126814  0.31380586     1.59600
O500        O  0.36187024  0.60051215  0.27518503    -0.80800
O501        O  0.31627094  0.63250820  0.33540302    -1.91300
Cd502      Cd  0.30420536  0.67279349  0.31672373     1.59900
O503        O  0.29956462  0.55643592  0.27728671    -0.80700
O504        O  0.29844715  0.70072221  0.36764885    -0.79400
C505        C  0.25293602  0.54703119  0.39979898     0.83200
C506        C  0.40295069  0.65523326  0.39826209     0.82800
O507        O  0.30233087  0.66680561  0.42028411    -0.78300
C508        C  0.37646368  0.71470345  0.26333889     0.83600
O509        O  0.28059466  0.57722406  0.41646612    -0.78400
C510        C  0.33339915  0.56811623  0.26412816     0.83800
C511        C  0.23235219  0.61421339  0.26744408     0.84100
O512        O  0.23770750  0.58648829  0.27664146    -0.80900
C513        C  0.28843832  0.93828084  0.52888368     0.03300
C514        C  0.26473387  0.91206414  0.55866697    -0.12900
C515        C  0.22788724  0.90605791  0.56566091     0.00800
C516        C  0.21296344  0.92406951  0.54056284    -0.11400
C517        C  0.23518825  0.94972402  0.50888267     0.03300
C518        C  0.27369167  0.95752355  0.50498063    -0.10800
H519        H  0.27453275  0.89539492  0.57587605     0.08900
H520        H  0.18405880  0.91769426  0.54666022     0.06400
H521        H  0.29269940  0.97759381  0.48249568     0.06200
C522        C  0.16354115  0.97372329  0.45382636     0.03300
C523        C  0.18803096  0.50222831  0.42626674    -0.12900
C524        C  0.22731760  0.51466351  0.42619589     0.00800
C525        C  0.24237529  0.99831538  0.45345367    -0.11400
C526        C  0.21837915  0.96761821  0.47992726     0.03300
C527        C  0.17836231  0.95527247  0.47891763    -0.10800
H528        H  0.17705119  0.51703343  0.40747259     0.08900
H529        H  0.27324350  0.51078155  0.45359617     0.06400
H530        H  0.15832671  0.93297765  0.49901102     0.06200
C531        C  0.14723710  0.65441937  0.52604542     0.03300
C532        C  0.18341956  0.66752168  0.50794706    -0.12900
C533        C  0.21425464  0.70557422  0.51480858     0.00800
C534        C  0.20936987  0.72752630  0.54591568    -0.11400
C535        C  0.17359756  0.71403208  0.56440298     0.03300
C536        C  0.14229909  0.67901184  0.55234313    -0.10800
H537        H  0.18630554  0.64786571  0.48770640     0.08900
H538        H  0.23263713  0.75522879  0.55601901     0.06400
H539        H  0.11412737  0.67024545  0.56478948     0.06200
C540        C  0.30991827  0.77932681  0.46573023     0.03300
C541        C  0.31605075  0.75630869  0.43809810    -0.12900
C542        C  0.28989985  0.71691694  0.43541311     0.00800
C543        C  0.25802760  0.70002413  0.46161206    -0.11400
C544        C  0.24998520  0.72286456  0.48857115     0.03300
C545        C  0.27606414  0.76310428  0.48884666    -0.10800
H546        H  0.34213850  0.76877109  0.42003383     0.08900
H547        H  0.23989189  0.66914667  0.45991695     0.06400
H548        H  0.27163585  0.78257069  0.50786015     0.06200
C549        C  0.00268648  0.79718355  0.52914072     0.03300
C550        C  0.49800424  0.77116256  0.49690000    -0.12900
C551        C  0.50141308  0.73836920  0.50442639     0.00800
C552        C  0.01683912  0.73615951  0.54287308    -0.11400
C553        C  0.02570354  0.76396505  0.57377522     0.03300
C554        C  0.01464246  0.79159949  0.56841821    -0.10800
H555        H  0.49138199  0.77628102  0.46588024     0.08900
H556        H  0.02332549  0.71359374  0.54905927     0.06400
H557        H  0.01853477  0.81062839  0.59400044     0.06200
C558        C  0.47848796  0.64278809  0.45356218     0.03300
C559        C  0.49968448  0.67871856  0.47403938    -0.12900
C560        C  0.48670113  0.70566031  0.47363901     0.00800
C561        C  0.45511768  0.69780118  0.44765022    -0.11400
C562        C  0.43649253  0.66389067  0.42404270     0.03300
C563        C  0.44758123  0.63626836  0.42775782    -0.10800
H564        H  0.02402420  0.68371128  0.49298095     0.08900
H565        H  0.44359021  0.71698420  0.44682865     0.06400
H566        H  0.43055536  0.60859997  0.41236955     0.06200
C567        C  0.48296304  0.93086452  0.49522804     0.02400
C568        C  0.44611853  0.92897584  0.49502063     0.02400
C569        C  0.44357490  0.96348380  0.49591448     0.02400
C570        C  0.47816736  0.00022026  0.49400000     0.02400
C571        C  0.01494502  0.50216380  0.49427358     0.02400
C572        C  0.01777073  0.96787058  0.49376779     0.02400
C573        C  0.30699507  0.80161580  0.78881018     0.03300
C574        C  0.27625965  0.79519726  0.76275797    -0.12900
C575        C  0.26681472  0.82402971  0.75666536     0.00800
C576        C  0.28815417  0.85926440  0.77788372    -0.11400
C577        C  0.31918561  0.86639589  0.80458164     0.03300
C578        C  0.32918478  0.83751212  0.80839846    -0.10800
H579        H  0.25903932  0.76713996  0.74825245     0.08900
H580        H  0.27882956  0.88012204  0.77524178     0.06400
H581        H  0.35298038  0.84170067  0.82798307     0.06200
C582        C  0.34293449  0.96350436  0.85026126     0.03300
C583        C  0.33590020  0.93483822  0.82072144    -0.12900
C584        C  0.33719099  0.90155718  0.83195337     0.00800
C585        C  0.35378643  0.90173237  0.87075414    -0.11400
C586        C  0.36548637  0.93279169  0.89835660     0.03300
C587        C  0.35517964  0.96035779  0.88998831    -0.10800
H588        H  0.32871597  0.93816633  0.78925688     0.08900
H589        H  0.35843433  0.87847140  0.87961947     0.06400
H590        H  0.35975329  0.98132416  0.91373606     0.06200
C591        C  0.14858911  0.94096289  0.80915791     0.03300
C592        C  0.15215880  0.91849348  0.77861315    -0.12900
C593        C  0.12243299  0.88078845  0.77093894     0.00800
C594        C  0.08855163  0.86590680  0.79434483    -0.11400
C595        C  0.08447767  0.88778102  0.82645683     0.03300
C596        C  0.11541095  0.92577383  0.83310616    -0.10800
H597        H  0.17850564  0.93068205  0.76099590     0.08900
H598        H  0.06571495  0.83725402  0.78676092     0.06400
H599        H  0.11495619  0.94440996  0.85635107     0.06200
C600        C  0.47964421  0.82223627  0.85912575     0.03300
C601        C  0.47374033  0.84809581  0.88219895    -0.12900
C602        C  0.00503533  0.88285014  0.89602526     0.00800
C603        C  0.04144509  0.89564441  0.87894147    -0.11400
C604        C  0.04759448  0.87219534  0.85081073     0.03300
C605        C  0.01708782  0.83383543  0.84535325    -0.10800
H606        H  0.44476250  0.83996532  0.89137112     0.08900
H607        H  0.06391147  0.92364895  0.88795133     0.06400
H608        H  0.02141550  0.81262298  0.82977763     0.06200
C609        C  0.12331937  0.60033732  0.85605408     0.03300
C610        C  0.10516150  0.58697710  0.89437891    -0.12900
C611        C  0.06642043  0.57616260  0.89960974     0.00800
C612        C  0.04826029  0.58697965  0.86959375    -0.11400
C613        C  0.06637686  0.60345979  0.83182617     0.03300
C614        C  0.10229558  0.60619092  0.82422166    -0.10800
H615        H  0.12054281  0.58365833  0.92014682     0.08900
H616        H  0.01984831  0.58199054  0.87610952     0.06400
H617        H  0.11425453  0.61359256  0.79359678     0.06200
C618        C  0.49569714  0.63015957  0.78294283     0.03300
C619        C  0.00964187  0.60875062  0.80353171    -0.12900
C620        C  0.04913799  0.61985006  0.80198957     0.00800
C621        C  0.07320296  0.65096012  0.77588679    -0.11400
C622        C  0.05875170  0.67123213  0.75358376     0.03300
C623        C  0.01996369  0.66027255  0.75725341    -0.10800
H624        H  0.48992652  0.58548148  0.82296580     0.08900
H625        H  0.10373189  0.66136130  0.77487572     0.06400
H626        H  0.00884978  0.67683973  0.74215088     0.06200
C627        C  0.31451321  0.66352232  0.82477077     0.02400
C628        C  0.28044968  0.62642405  0.82788213     0.02400
C629        C  0.28442103  0.59261272  0.82800957     0.02400
C630        C  0.32185437  0.59612044  0.82559088     0.02400
C631        C  0.35588911  0.63362214  0.82318740     0.02400
C632        C  0.35197818  0.66707569  0.82440064     0.02400
O633        O  0.02946779  0.97887349  0.08587251    -0.78400
C634        C  0.45728443  0.52696347  0.06619389     0.82700
O635        O  0.41077418  0.87542896  0.02841467    -0.79500
O636        O  0.41643786  0.97550379  0.94302746    -0.81000
O637        O  0.05697354  0.52915695  0.94976026    -0.80800
O638        O  0.06641480  0.98256042  0.03304616    -0.79400
Zn639      Zn  0.47782287  0.96455230  0.06136010     1.55700
O640        O  0.00961489  0.54204961  0.94016006    -0.80800
Cd641      Cd  0.03148252  0.97830688  0.98290213     1.59700
Cd642      Cd  0.43980024  0.91276054  0.98111000     1.59600
O643        O  0.02723699  0.93746411  0.94071441    -0.80800
O644        O  0.47893031  0.96505255  0.00171890    -1.91300
Cd645      Cd  0.46632589  0.50343263  0.97901936     1.59900
O646        O  0.46526547  0.89189894  0.94276528    -0.80700
O647        O  0.45858687  0.53278416  0.02730512    -0.79400
C648        C  0.41458619  0.88085580  0.06734876     0.83200
C649        C  0.06098003  0.98368328  0.07171814     0.82800
O650        O  0.46310109  0.50146158  0.08215768    -0.78300
C651        C  0.04349439  0.54855043  0.93259853     0.83600
O652        O  0.43933524  0.91287636  0.08348753    -0.78400
C653        C  0.49894943  0.90546734  0.92826148     0.83800
C654        C  0.39438133  0.94069872  0.93110093     0.84100
O655        O  0.39897818  0.91338663  0.94368199    -0.80900
O656        O  0.15646907  0.75980230  0.58107744    -0.78400
C657        C  0.05673286  0.77142508  0.60341741     0.82700
O658        O  0.21246285  0.88219133  0.63426825    -0.79500
O659        O  0.09958728  0.82337805  0.73045322    -0.81000
O660        O  0.11716804  0.71235605  0.71836054    -0.80800
O661        O  0.17020583  0.73197761  0.63287239    -0.79400
Zn662      Zn  0.14105384  0.79453970  0.60676236     1.55700
O663        O  0.07212852  0.72924722  0.72025801    -0.80800
Cd664      Cd  0.15991658  0.75619747  0.68387228     1.59700
Cd665      Cd  0.18564161  0.84700022  0.68511763     1.59600
O666        O  0.20978277  0.78170958  0.71903418    -0.80800
O667        O  0.14490741  0.79470739  0.66613597    -1.91300
Cd668      Cd  0.09336566  0.78093746  0.68899497     1.59900
O669        O  0.22786923  0.84399317  0.72017649    -0.80700
O670        O  0.05323676  0.77380223  0.64233786    -0.79400
C671        C  0.20350479  0.87690860  0.59583716     0.83200
C672        C  0.16725688  0.73707814  0.59447140     0.82800
O673        O  0.08797060  0.77713112  0.58779260    -0.78300
C674        C  0.08418484  0.70613300  0.72939880     0.83600
O675        O  0.17521391  0.84583838  0.58202317    -0.78400
C676        C  0.23306859  0.81625461  0.73047127     0.83800
C677        C  0.12774218  0.85678836  0.73960706     0.84100
O678        O  0.16086430  0.86996058  0.72331605    -0.80900
C679        C  0.42822781  0.61463579  0.76663163    -0.01700
C680        C  0.45912389  0.62788903  0.79488465     0.08000
C681        C  0.45872277  0.64670303  0.83133329    -0.01800
C682        C  0.42695334  0.65115586  0.84055553    -0.01800
C683        C  0.39421329  0.63611372  0.81307839     0.08100
C684        C  0.39663790  0.61960384  0.77503947    -0.02000
Br685      Br  0.35954406  0.60894970  0.73122254    -0.00600
Br686      Br  0.42993496  0.59034198  0.71577546    -0.00600
Br687      Br  0.43236656  0.67897526  0.89093774    -0.00600
Br688      Br  0.50352040  0.66818864  0.86808744    -0.00600
C689        C  0.21823807  0.59991076  0.86849140    -0.01700
C690        C  0.24055067  0.62199432  0.83468324     0.08000
C691        C  0.22344906  0.63898137  0.80980679    -0.01800
C692        C  0.18937654  0.63762303  0.82263756    -0.01800
C693        C  0.16386299  0.60808532  0.84936858     0.08100
C694        C  0.17865735  0.58702590  0.87002654    -0.02000
Br695      Br  0.14661956  0.53770474  0.89569315    -0.00600
Br696      Br  0.24205413  0.59538591  0.91829778    -0.00600
Br697      Br  0.18238765  0.68036425  0.80780011    -0.00600
Br698      Br  0.23921313  0.65908386  0.75528104    -0.00600
C699        C  0.44111027  0.76741695  0.80940871    -0.01700
C700        C  0.44672253  0.78286537  0.84981492     0.08000
C701        C  0.42155724  0.75996408  0.88149620    -0.01800
C702        C  0.39038155  0.72303818  0.87220388    -0.01800
C703        C  0.38629832  0.70651885  0.83235397     0.08100
C704        C  0.41358257  0.72856619  0.80167995    -0.02000
Br705      Br  0.41811504  0.70700823  0.75035627    -0.00600
Br706      Br  0.46907391  0.79994427  0.76322095    -0.00600
Br707      Br  0.35862478  0.69154094  0.91715811    -0.00600
Br708      Br  0.43139257  0.77655841  0.93891155    -0.00600
C709        C  0.18916561  0.50902155  0.78739255    -0.01700
C710        C  0.18071891  0.98045899  0.81671518     0.08000
C711        C  0.20498619  0.98829157  0.85133265    -0.01800
C712        C  0.23834761  0.52465552  0.85644334    -0.01800
C713        C  0.24834462  0.55343761  0.82556616     0.08100
C714        C  0.22340553  0.54465864  0.79068456    -0.02000
Br715      Br  0.23944201  0.57746113  0.74270929    -0.00600
Br716      Br  0.15392714  0.49885721  0.74159994    -0.00600
Br717      Br  0.26924893  0.53220455  0.90535200    -0.00600
Br718      Br  0.19303444  0.94801425  0.89126634    -0.00600
C719        C  0.30682166  0.52703905  0.80440794    -0.01700
C720        C  0.32689888  0.56111046  0.82917669     0.08000
C721        C  0.35278726  0.56140647  0.85946764    -0.01800
C722        C  0.36384954  0.53365013  0.85833404    -0.01800
C723        C  0.33857960  0.99734029  0.84028670     0.08100
C724        C  0.30777902  0.99377596  0.81555302    -0.02000
Br725      Br  0.26367688  0.94422021  0.80145948    -0.00600
Br726      Br  0.28217450  0.52386115  0.75229990    -0.00600
Br727      Br  0.41479178  0.54804862  0.87880656    -0.00600
Br728      Br  0.36525356  0.59158716  0.90939533    -0.00600
C729        C  0.29897725  0.75040401  0.83800880    -0.01700
C730        C  0.31219522  0.76871231  0.79969097     0.08000
C731        C  0.32551854  0.75272292  0.77010897    -0.01800
C732        C  0.32466072  0.71792556  0.77822735    -0.01800
C733        C  0.31241485  0.69955315  0.81714387     0.08100
C734        C  0.29922378  0.71620644  0.84701814    -0.02000
Br735      Br  0.27857873  0.69260012  0.89943955    -0.00600
Br736      Br  0.27828434  0.77137050  0.87747762    -0.00600
Br737      Br  0.33144584  0.69112489  0.73228081    -0.00600
Br738      Br  0.34370419  0.77798158  0.71762151    -0.00600
C739        C  0.48518290  0.55158670  0.44379868    -0.01700
C740        C  0.47713426  0.53688431  0.48468225     0.08000
C741        C  0.47115398  0.55896164  0.51517824    -0.01800
C742        C  0.47499761  0.59497618  0.50553208    -0.01800
C743        C  0.48290314  0.60912302  0.46480809     0.08100
C744        C  0.48793778  0.58717041  0.43400922    -0.02000
Br745      Br  0.99826666  0.60583609  0.37779300    -0.00600
Br746      Br  0.98795632  0.52106806  0.39908735    -0.00600
Br747      Br  0.46645257  0.62374194  0.54847824    -0.00600
Br748      Br  0.45401826  0.04098652  0.56980385    -0.00600
C749        C  0.01914964  0.86690100  0.54085865    -0.01700
C750        C  0.49648341  0.83065725  0.52107156     0.08000
C751        C  0.46750787  0.82712394  0.49315455    -0.01800
C752        C  0.46772282  0.86037640  0.47895741    -0.01800
C753        C  0.48629891  0.89506692  0.50292875     0.08100
C754        C  0.00832366  0.89497885  0.53743167    -0.02000
Br755      Br  0.01449817  0.92501684  0.58614368    -0.00600
Br756      Br  0.06795062  0.88240647  0.56784216    -0.00600
Br757      Br  0.44788716  0.85610761  0.42393248    -0.00600
Br758      Br  0.42422407  0.77745333  0.47754075    -0.00600
C759        C  0.35575589  0.84698884  0.44347626    -0.01700
C760        C  0.34160984  0.81896298  0.47465378     0.08000
C761        C  0.36088311  0.82696592  0.51319060    -0.01800
C762        C  0.39416577  0.86281842  0.52067373    -0.01800
C763        C  0.40940082  0.89098749  0.48914802     0.08100
C764        C  0.38989270  0.88240741  0.45026527    -0.02000
Br765      Br  0.41403726  0.91478281  0.40298860    -0.00600
Br766      Br  0.32926392  0.83602660  0.39058861    -0.00600
Br767      Br  0.41893913  0.87022289  0.57365355    -0.00600
Br768      Br  0.34363503  0.78725631  0.55499758    -0.00600
C769        C  0.05767833  0.55676476  0.54203297    -0.01700
C770        C  0.05017045  0.54081831  0.50158040     0.08000
C771        C  0.07556482  0.56259729  0.46947296    -0.01800
C772        C  0.10443761  0.60095466  0.47670787    -0.01800
C773        C  0.11406765  0.61523782  0.51755583     0.08100
C774        C  0.09147190  0.59194469  0.55047938    -0.02000
Br775      Br  0.10858008  0.60548572  0.60751816    -0.00600
Br776      Br  0.02567045  0.02756433  0.58811432    -0.00600
Br777      Br  0.12820227  0.63423318  0.42974116    -0.00600
Br778      Br  0.07572609  0.54099763  0.41659654    -0.00600
C779        C  0.08905248  0.98608687  0.51199583    -0.01700
C780        C  0.05624149  0.96991066  0.48451201     0.08000
C781        C  0.06059362  0.95591418  0.44555042    -0.01800
C782        C  0.09460245  0.95525513  0.43598236    -0.01800
C783        C  0.12606193  0.97088018  0.46384431     0.08100
C784        C  0.12379335  0.98821257  0.50051091    -0.02000
Br785      Br  0.17043944  0.51833245  0.53367842    -0.00600
Br786      Br  0.09045132  0.50486559  0.56662324    -0.00600
Br787      Br  0.09894671  0.93440423  0.38383928    -0.00600
Br788      Br  0.02252037  0.94264770  0.40219485    -0.00600
C789        C  0.35422077  0.95023545  0.55389741    -0.01700
C790        C  0.32800044  0.94436291  0.52119861     0.08000
C791        C  0.34038128  0.94537441  0.48041537    -0.01800
C792        C  0.37946313  0.95913759  0.47250722    -0.01800
C793        C  0.40462450  0.96005805  0.50438685     0.08100
C794        C  0.39022421  0.95341731  0.54537534    -0.02000
Br795      Br  0.42010654  0.95088757  0.59115138    -0.00600
Br796      Br  0.34302367  0.95725642  0.61020024    -0.00600
Br797      Br  0.39643927  0.98408492  0.42037045    -0.00600
Br798      Br  0.30381813  0.92467595  0.43470442    -0.00600
C799        C  0.28031173  0.80367014  0.17398955    -0.01700
C800        C  0.28814823  0.79861332  0.13292585     0.08000
C801        C  0.25946646  0.78952241  0.10224988    -0.01800
C802        C  0.22458699  0.78819992  0.11240868    -0.01800
C803        C  0.21608579  0.79201032  0.15416782     0.08100
C804        C  0.24347613  0.79606840  0.18491153    -0.02000
Br805      Br  0.23133769  0.78325311  0.24160022    -0.00600
Br806      Br  0.32099439  0.82460357  0.21580118    -0.00600
Br807      Br  0.18985329  0.78316129  0.06794458    -0.00600
Br808      Br  0.26792933  0.77911604  0.04620218    -0.00600
C809        C  0.00952937  0.78315920  0.14576774    -0.01700
C810        C  0.99854463  0.78701066  0.18582232     0.05000
C811        C  0.02608688  0.79883963  0.21830183    -0.01800
C812        C  0.06221525  0.80198017  0.21149380    -0.01800
C813        C  0.07403885  0.79988816  0.17084916     0.08100
C814        C  0.04804018  0.79441521  0.13787042    -0.02000
Br815      Br  0.06425436  0.81146090  0.08280809    -0.00600
Br816      Br  0.47175818  0.75998041  0.10121802    -0.00600
Br817      Br  0.09402226  0.80749088  0.25893267    -0.00600
Br818      Br  0.01518290  0.81214795  0.27194099    -0.00600
C819        C  0.26688781  0.91546863  0.22314295    -0.01700
C820        C  0.28429910  0.94225923  0.19091915     0.08000
C821        C  0.27120610  0.93066402  0.14999762    -0.01800
C822        C  0.24290878  0.89244823  0.14135735    -0.01800
C823        C  0.22080746  0.86740364  0.17361427     0.08100
C824        C  0.23397074  0.87919257  0.21488840    -0.02000
Br825      Br  0.20718822  0.84663369  0.26107099    -0.00600
Br826      Br  0.28866614  0.92784928  0.27846909    -0.00600
Br827      Br  0.24310766  0.87510156  0.08640347    -0.00600
Br828      Br  0.28980029  0.96730873  0.10497700    -0.00600
C829        C  0.02373928  0.67901019  0.10498554    -0.01700
C830        C  0.00506377  0.65213547  0.13686786     0.08000
C831        C  0.01882375  0.66241817  0.17779411    -0.01800
C832        C  0.04843738  0.69992694  0.18710147    -0.01800
C833        C  0.07062775  0.72549408  0.15519594     0.08100
C834        C  0.05754776  0.71442066  0.11375578    -0.02000
Br835      Br  0.08643410  0.74615523  0.06787718    -0.00600
Br836      Br  0.50331730  0.66758833  0.04870925    -0.00600
Br837      Br  0.05182740  0.71515231  0.24354989    -0.00600
Br838      Br  0.00000848  0.62440908  0.22161579    -0.00600
C839        C  0.15369619  0.67038224  0.15453021    -0.01700
C840        C  0.15177124  0.65883569  0.19582940     0.08000
C841        C  0.14391481  0.67849256  0.22694175    -0.01800
C842        C  0.14160926  0.71151266  0.21694363    -0.01800
C843        C  0.14156180  0.72202444  0.17497890     0.08100
C844        C  0.14392696  0.69819934  0.14402897    -0.02000
Br845      Br  0.12624096  0.69492636  0.08838664    -0.00600
Br846      Br  0.17284175  0.65063452  0.11178526    -0.00600
Br847      Br  0.14044446  0.74271281  0.26176442    -0.00600
Br848      Br  0.13586879  0.66006850  0.28318218    -0.00600
C849        C  0.15214678  0.88671336  0.11884038    -0.01700
C850        C  0.14960616  0.87204063  0.15935448     0.08000
C851        C  0.14497967  0.89282694  0.19233828    -0.01800
C852        C  0.13445133  0.92066023  0.18434622    -0.01800
C853        C  0.13825356  0.93580514  0.14436323     0.08100
C854        C  0.14982287  0.92026871  0.11218067    -0.02000
Br855      Br  0.16437908  0.94600861  0.05950727    -0.00600
Br856      Br  0.15741972  0.86090965  0.07134911    -0.00600
Br857      Br  0.11312870  0.93631528  0.22879748    -0.00600
Br858      Br  0.16317263  0.89429592  0.24747921    -0.00600
C859        C  0.62977547  0.46743125  0.13643872     0.03300
C860        C  0.60214476  0.46239437  0.10659157    -0.12900
C861        C  0.59160179  0.49032441  0.10140047     0.00800
C862        C  0.60769206  0.02315125  0.12711293    -0.11400
C863        C  0.63545537  0.02924170  0.15807852     0.03300
C864        C  0.64720600  0.50130870  0.16076784    -0.10800
H865        H  0.58788408  0.43608987  0.08826198     0.08900
H866        H  0.59815484  0.04338135  0.12175896     0.06400
H867        H  0.66889324  0.50413260  0.18245525     0.06200
C868        C  0.65956587  0.12725297  0.20577489     0.03300
C869        C  0.63965288  0.09163201  0.18469178    -0.12900
C870        C  0.65231735  0.06447467  0.18647890     0.00800
C871        C  0.68231665  0.07234097  0.21508929    -0.11400
C872        C  0.70057169  0.10666124  0.23853977     0.03300
C873        C  0.68997089  0.13449191  0.23251493    -0.10800
H874        H  0.61569018  0.08703212  0.16559121     0.08900
H875        H  0.69278917  0.05273888  0.21917052     0.06400
H876        H  0.70573072  0.16218354  0.24815252     0.06200
C877        C  0.97270708  0.11256521  0.12754024     0.03300
C878        C  0.93859104  0.09646617  0.15062093    -0.12900
C879        C  0.91182325  0.05628668  0.14982036     0.00800
C880        C  0.91788012  0.03414609  0.11996301    -0.11400
C881        C  0.94997736  0.05090397  0.09424192     0.03300
C882        C  0.97794009  0.08943565  0.09924350    -0.10800
H883        H  0.93494268  0.11587582  0.17047323     0.08900
H884        H  0.89849071  0.00370629  0.11593714     0.06400
H885        H  0.50445607  0.10104214  0.08231257     0.06200
C886        C  0.81600502  0.48230337  0.19958521     0.03300
C887        C  0.85051430  0.49807810  0.17746350    -0.12900
C888        C  0.87831465  0.03782242  0.17955390     0.00800
C889        C  0.87306798  0.05964828  0.21049467    -0.11400
C890        C  0.83945015  0.04381274  0.23425296     0.03300
C891        C  0.81046301  0.00561476  0.22720257    -0.10800
H892        H  0.85388486  0.47866436  0.15736897     0.08900
H893        H  0.89434244  0.08930767  0.21625036     0.06400
H894        H  0.78338570  0.49372864  0.24364788     0.06200
C895        C  0.95851376  0.27856887  0.19339033     0.03300
C896        C  0.93663123  0.25215977  0.22374924    -0.12900
C897        C  0.89911012  0.24393626  0.23196171     0.00800
C898        C  0.88272871  0.26149252  0.20813365    -0.11400
C899        C  0.90304145  0.28636391  0.17514267     0.03300
C900        C  0.94164677  0.29543865  0.16934218    -0.10800
H901        H  0.94911803  0.23794616  0.24108007     0.08900
H902        H  0.85390666  0.25492040  0.21531752     0.06400
H903        H  0.95909789  0.31465811  0.14534921     0.06200
C904        C  0.82734725  0.30557498  0.12285902     0.03300
C905        C  0.85062423  0.33554713  0.09614907    -0.12900
C906        C  0.89008783  0.34909290  0.09466292     0.00800
C907        C  0.90690558  0.33420209  0.12124068    -0.11400
C908        C  0.88428802  0.30244616  0.14683831     0.03300
C909        C  0.84382024  0.28718854  0.14545829    -0.10800
H910        H  0.83858247  0.35001190  0.07850185     0.08900
H911        H  0.93788441  0.34836645  0.12146300     0.06400
H912        H  0.82475049  0.26268378  0.16393068     0.06200
C913        C  0.64787009  0.33355218  0.16533544     0.02400
C914        C  0.61089378  0.29873932  0.16457970     0.02400
C915        C  0.60873561  0.26193677  0.16362347     0.02400
C916        C  0.64328914  0.25973529  0.16515738     0.02400
C917        C  0.68021968  0.29426380  0.16384490     0.02400
C918        C  0.68251838  0.33116597  0.16563272     0.02400
O919        O  0.87148488  0.14708928  0.41574851    -0.78400
C920        C  0.79702539  0.19334061  0.40617044     0.82700
O921        O  0.74605599  0.04431196  0.36103634    -0.79500
O922        O  0.75384288  0.14806505  0.28192605    -0.81000
O923        O  0.88788004  0.19169063  0.27470139    -0.80800
O924        O  0.90600807  0.15498965  0.35914601    -0.79400
Zn925      Zn  0.81768000  0.13061649  0.39531779     1.55700
O926        O  0.84568801  0.21207500  0.27724941    -0.80800
Cd927      Cd  0.86671587  0.14446155  0.31235829     1.59700
Cd928      Cd  0.77618671  0.08121782  0.31379901     1.59600
O929        O  0.86184414  0.10044215  0.27523441    -0.80800
O930        O  0.81623915  0.13245502  0.33540427    -1.91300
Cd931      Cd  0.80417833  0.17273985  0.31672012     1.59900
O932        O  0.79953324  0.05637402  0.27729627    -0.80700
O933        O  0.79844339  0.20068642  0.36763695    -0.79400
C934        C  0.75289095  0.04698860  0.39978794     0.83200
C935        C  0.90292735  0.15521998  0.39827692     0.82800
O936        O  0.80229987  0.16676024  0.42027814    -0.78300
C937        C  0.87641645  0.21462045  0.26331097     0.83600
O938        O  0.78055464  0.07717657  0.41645735    -0.78400
C939        C  0.83337527  0.06804981  0.26416429     0.83800
C940        C  0.73231878  0.11416369  0.26745038     0.84100
O941        O  0.73768007  0.08643931  0.27663044    -0.80900
C942        C  0.78843727  0.43826070  0.52884346     0.03300
C943        C  0.76473917  0.41205170  0.55863674    -0.12900
C944        C  0.72789390  0.40604738  0.56563587     0.00800
C945        C  0.71296414  0.42405005  0.54053458    -0.11400
C946        C  0.73518099  0.44969548  0.50884615     0.03300
C947        C  0.77368450  0.45749656  0.50493782    -0.10800
H948        H  0.77454096  0.39538652  0.57584874     0.08900
H949        H  0.68406158  0.41767594  0.54663772     0.06400
H950        H  0.79268746  0.47756331  0.48244722     0.06200
C951        C  0.66351987  0.47369141  0.45382080     0.03300
C952        C  0.68798743  0.00218688  0.42626554    -0.12900
C953        C  0.72727370  0.01461991  0.42618088     0.00800
C954        C  0.74235283  0.49827850  0.45341813    -0.11400
C955        C  0.71836333  0.46758286  0.47989472     0.03300
C956        C  0.67834592  0.45523636  0.47889751    -0.10800
H957        H  0.67700468  0.01699744  0.40748525     0.08900
H958        H  0.77320543  0.01073308  0.45355609     0.06400
H959        H  0.65831445  0.43293909  0.49898988     0.06200
C960        C  0.64725043  0.15442247  0.52603936     0.03300
C961        C  0.68343043  0.16752517  0.50793514    -0.12900
C962        C  0.71426281  0.20558278  0.51478133     0.00800
C963        C  0.70937767  0.22754423  0.54587707    -0.11400
C964        C  0.67360761  0.21404809  0.56437257     0.03300
C965        C  0.64231177  0.17902011  0.55232762    -0.10800
H966        H  0.68631532  0.14786476  0.48770140     0.08900
H967        H  0.73264301  0.25525333  0.55596568     0.06400
H968        H  0.61414124  0.17025175  0.56477948     0.06200
C969        C  0.80991786  0.27931951  0.46566592     0.03300
C970        C  0.81604535  0.25628751  0.43804963    -0.12900
C971        C  0.78989795  0.21689374  0.43539227     0.00800
C972        C  0.75803428  0.20001251  0.46160202    -0.11400
C973        C  0.74999092  0.22286560  0.48853970     0.03300
C974        C  0.77606640  0.26310688  0.48878952    -0.10800
H975        H  0.84212945  0.26874054  0.41997958     0.08900
H976        H  0.73990460  0.16913403  0.45992945     0.06400
H977        H  0.77164013  0.28258023  0.50779304     0.06200
C978        C  0.50266918  0.29717006  0.52913157     0.03300
C979        C  0.99801142  0.27116511  0.49690395    -0.12900
C980        C  0.00140160  0.23836409  0.50444403     0.00800
C981        C  0.51684807  0.23616245  0.54285129    -0.11400
C982        C  0.52569776  0.26395887  0.57375873     0.03300
C983        C  0.51462187  0.29158220  0.56840859    -0.10800
H984        H  0.99139101  0.27627789  0.46588107     0.08900
H985        H  0.52334585  0.21360419  0.54903383     0.06400
H986        H  0.51850494  0.31060463  0.59399476     0.06200
C987        C  0.97846509  0.14278053  0.45357952     0.03300
C988        C  0.99966010  0.17870782  0.47406180    -0.12900
C989        C  0.98667892  0.20565048  0.47366172     0.00800
C990        C  0.95509530  0.19779372  0.44767161    -0.11400
C991        C  0.93647004  0.16388368  0.42406119     0.03300
C992        C  0.94755951  0.13626241  0.42777507    -0.10800
H993        H  0.52405213  0.18372624  0.49296077     0.08900
H994        H  0.94357010  0.21697832  0.44685029     0.06400
H995        H  0.93053543  0.10859525  0.41238367     0.06200
C996        C  0.98298273  0.43087124  0.49517668     0.02400
C997        C  0.94613114  0.42896743  0.49496174     0.02400
C998        C  0.94357388  0.46346775  0.49586054     0.02400
C999        C  0.97815879  0.50021131  0.49395320     0.02400
C1000       C  0.51494745  0.00215930  0.49431941     0.02400
C1001       C  0.51776472  0.46785964  0.49379905     0.02400
C1002       C  0.80696744  0.30160237  0.78881521     0.03300
C1003       C  0.77623737  0.29519122  0.76275790    -0.12900
C1004       C  0.76679429  0.32402626  0.75667109     0.00800
C1005       C  0.78812975  0.35925508  0.77790232    -0.11400
C1006       C  0.81915633  0.36637872  0.80460555     0.03300
C1007       C  0.82915334  0.33749313  0.80841480    -0.10800
H1008       H  0.75902107  0.26713827  0.74824208     0.08900
H1009       H  0.77880669  0.38011422  0.77526390     0.06400
H1010       H  0.85294624  0.34167606  0.82800038     0.06200
C1011       C  0.84291280  0.46348242  0.85030866     0.03300
C1012       C  0.83587413  0.43481878  0.82076364    -0.12900
C1013       C  0.83716373  0.40153536  0.83198574     0.00800
C1014       C  0.85376600  0.40170659  0.87078166    -0.11400
C1015       C  0.86547223  0.43276399  0.89838897     0.03300
C1016       C  0.85516389  0.46033149  0.89003116    -0.10800
H1017       H  0.82868881  0.43815173  0.78930097     0.08900
H1018       H  0.85841465  0.37844464  0.87963976     0.06400
H1019       H  0.85973929  0.48129443  0.91378359     0.06200
C1020       C  0.64856071  0.44099235  0.80908972     0.03300
C1021       C  0.65213449  0.41851575  0.77855811    -0.12900
C1022       C  0.62240887  0.38081131  0.77088558     0.00800
C1023       C  0.58852140  0.36593483  0.79428200    -0.11400
C1024       C  0.58444168  0.38781610  0.82638221     0.03300
C1025       C  0.61537506  0.42581400  0.83302894    -0.10800
H1026       H  0.67848930  0.43069976  0.76095111     0.08900
H1027       H  0.56568695  0.33728173  0.78670305     0.06400
H1028       H  0.61492093  0.44444765  0.85624726     0.06200
C1029       C  0.97966209  0.32221578  0.85916141     0.03300
C1030       C  0.97375555  0.34807383  0.88223554    -0.12900
C1031       C  0.50500913  0.38288763  0.89596896     0.00800
C1032       C  0.54141680  0.39568679  0.87887280    -0.11400
C1033       C  0.54755809  0.37223268  0.85073675     0.03300
C1034       C  0.51705022  0.33387131  0.84528725    -0.10800
H1035       H  0.94477748  0.33994572  0.89139707     0.08900
H1036       H  0.56386816  0.42367419  0.88787623     0.06400
H1037       H  0.52137417  0.31266014  0.82970682     0.06200
C1038       C  0.62332920  0.10034423  0.85600931     0.03300
C1039       C  0.60518029  0.08698606  0.89434014    -0.12900
C1040       C  0.56644436  0.07618494  0.89958769     0.00800
C1041       C  0.54828408  0.08701269  0.86958352    -0.11400
C1042       C  0.56638950  0.10348592  0.83180977     0.03300
C1043       C  0.60230042  0.10620453  0.82418794    -0.10800
H1044       H  0.62056443  0.08365921  0.92009978     0.08900
H1045       H  0.51987919  0.08203617  0.87611327     0.06400
H1046       H  0.61424851  0.11359972  0.79355820     0.06200
C1047       C  0.99568381  0.13011571  0.78291070     0.03300
C1048       C  0.50965472  0.10879664  0.80355078    -0.12900
C1049       C  0.54914636  0.11988102  0.80198504     0.00800
C1050       C  0.57320546  0.15098001  0.77586772    -0.11400
C1051       C  0.55875446  0.17125703  0.75357460     0.03300
C1052       C  0.51997249  0.16031400  0.75726881    -0.10800
H1053       H  0.98991151  0.08544036  0.82293975     0.08900
H1054       H  0.60373129  0.16136955  0.77483746     0.06400
H1055       H  0.50885938  0.17688418  0.74217116     0.06200
C1056       C  0.81452652  0.16352116  0.82474235     0.02400
C1057       C  0.78046144  0.12642209  0.82785062     0.02400
C1058       C  0.78443163  0.09261007  0.82798038     0.02400
C1059       C  0.82186389  0.09611606  0.82556764     0.02400
C1060       C  0.85589901  0.13361627  0.82316131     0.02400
C1061       C  0.85199115  0.16707205  0.82437361     0.02400
O1062       O  0.52946316  0.47887292  0.08585703    -0.78400
C1063       C  0.95724615  0.02691532  0.06620319     0.82700
O1064       O  0.91076886  0.37541747  0.02845376    -0.79500
O1065       O  0.91641923  0.47547016  0.94306873    -0.81000
O1066       O  0.55699313  0.02918005  0.94974571    -0.80800
O1067       O  0.56640144  0.48253472  0.03303205    -0.79400
Zn1068     Zn  0.97783534  0.46453232  0.06138804     1.55700
O1069       O  0.50963817  0.04207678  0.94013682    -0.80800
Cd1070     Cd  0.53148765  0.47832449  0.98288669     1.59700
Cd1071     Cd  0.93980034  0.41273559  0.98113829     1.59600
O1072       O  0.52722736  0.43749121  0.94067758    -0.80800
O1073       O  0.97892987  0.46502861  0.00174598    -1.91300
Cd1074     Cd  0.96630601  0.00339937  0.97903360     1.59900
O1075       O  0.96527462  0.39186967  0.94280873    -0.80700
O1076       O  0.95854496  0.03273716  0.02731536    -0.79400
C1077       C  0.91459216  0.38084337  0.06738815     0.83200
C1078       C  0.56096652  0.48365897  0.07170410     0.82800
O1079       O  0.96307696  0.00142194  0.08216461    -0.78300
C1080       C  0.54351778  0.04857537  0.93257959     0.83600
O1081       O  0.93935476  0.41285917  0.08352454    -0.78400
C1082       C  0.99895905  0.40544214  0.92830384     0.83800
C1083       C  0.89437176  0.44066771  0.93112905     0.84100
O1084       O  0.89898077  0.41335859  0.94369542    -0.80900
O1085       O  0.65646635  0.25980941  0.58104811    -0.78400
C1086       C  0.55672912  0.27142625  0.60339882     0.82700
O1087       O  0.71247022  0.38218932  0.63424670    -0.79500
O1088       O  0.59957386  0.32339153  0.73041874    -0.81000
O1089       O  0.61716167  0.21236278  0.71832620    -0.80800
O1090       O  0.67021816  0.23199648  0.63284192    -0.79400
Zn1091     Zn  0.64105091  0.29454421  0.60673997     1.55700
O1092       O  0.57213311  0.22926820  0.72024370    -0.80800
Cd1093     Cd  0.65991500  0.25620625  0.68384297     1.59700
Cd1094     Cd  0.68563692  0.34700865  0.68510016     1.59600
O1095       O  0.70977426  0.28171652  0.71901617    -0.80800
O1096       O  0.64490556  0.29471658  0.66611324    -1.91300
Cd1097     Cd  0.59336422  0.28094932  0.68897195     1.59900
O1098       O  0.72785596  0.34399879  0.72017749    -0.80700
O1099       O  0.55323159  0.27380119  0.64231869    -0.79400
C1100       C  0.70351191  0.37690395  0.59581561     0.83200
C1101       C  0.66726500  0.23709359  0.59444082     0.82800
O1102       O  0.58796881  0.27713864  0.58777329    -0.78300
C1103       C  0.58418479  0.20614930  0.72937755     0.83600
O1104       O  0.67521494  0.34583772  0.58200352    -0.78400
C1105       C  0.73305490  0.31625853  0.73046724     0.83800
C1106       C  0.62772533  0.35680501  0.73956697     0.84100
O1107       O  0.66084965  0.36997541  0.72328059    -0.80900
C1108       C  0.92821728  0.11460468  0.76660186    -0.01700
C1109       C  0.95911382  0.12785107  0.79485371     0.08000
C1110       C  0.95872247  0.14667394  0.83129969    -0.01800
C1111       C  0.92695997  0.15113711  0.84052395    -0.01800
C1112       C  0.89421899  0.13610092  0.81304935     0.08100
C1113       C  0.89663656  0.11958791  0.77500962    -0.02000
Br1114     Br  0.85955024  0.10895727  0.73119064    -0.00600
Br1115     Br  0.92991237  0.09030278  0.71574668    -0.00600
Br1116     Br  0.93238776  0.17896860  0.89090063    -0.00600
Br1117     Br  0.00352758  0.16816399  0.86804405    -0.00600
C1118       C  0.71823751  0.09990113  0.86844175    -0.01700
C1119       C  0.74055988  0.12199041  0.83464122     0.08000
C1120       C  0.72346235  0.13897550  0.80975587    -0.01800
C1121       C  0.68938539  0.13761612  0.82257519    -0.01800
C1122       C  0.66386818  0.10808144  0.84930893     0.08100
C1123       C  0.67865664  0.08701648  0.86996511    -0.02000
Br1124     Br  0.64660865  0.03768655  0.89561046    -0.00600
Br1125     Br  0.74203686  0.09536602  0.91825602    -0.00600
Br1126     Br  0.68239794  0.18035387  0.80771794    -0.00600
Br1127     Br  0.73924784  0.15908237  0.75523489    -0.00600
C1128       C  0.94114162  0.26741071  0.80942327    -0.01700
C1129       C  0.94673966  0.28284990  0.84983297     0.08000
C1130       C  0.92156129  0.25994281  0.88150218    -0.01800
C1131       C  0.89038684  0.22302025  0.87219498    -0.01800
C1132       C  0.88631220  0.20651195  0.83234040     0.08100
C1133       C  0.91361088  0.22856342  0.80167945    -0.02000
Br1134     Br  0.91816269  0.20701363  0.75035818    -0.00600
Br1135     Br  0.96913077  0.29994585  0.76325005    -0.00600
Br1136     Br  0.85862510  0.19150711  0.91713757    -0.00600
Br1137     Br  0.93137747  0.27652333  0.93892244    -0.00600
C1138       C  0.68918055  0.00903268  0.78733977    -0.01700
C1139       C  0.68070031  0.48048260  0.81665619     0.08000
C1140       C  0.70495195  0.48830223  0.85128620    -0.01800
C1141       C  0.73834303  0.02465321  0.85640644    -0.01800
C1142       C  0.74835479  0.05343635  0.82552740     0.08100
C1143       C  0.72342736  0.04466306  0.79063665    -0.02000
Br1144     Br  0.73948771  0.07746568  0.74266111    -0.00600
Br1145     Br  0.65396170  0.99887590  0.74152920    -0.00600
Br1146     Br  0.76923733  0.03218937  0.90531849    -0.00600
Br1147     Br  0.69296284  0.44801914  0.89122360    -0.00600
C1148       C  0.80683478  0.02703359  0.80439866    -0.01700
C1149       C  0.82690700  0.06110599  0.82916555     0.08000
C1150       C  0.85278607  0.06140232  0.85946895    -0.01800
C1151       C  0.86384669  0.03364342  0.85835035    -0.01800
C1152       C  0.83855687  0.49731949  0.84033940     0.08100
C1153       C  0.80776338  0.49375656  0.81559342    -0.02000
Br1154     Br  0.76365254  0.44420306  0.80151097    -0.00600
Br1155     Br  0.78220251  0.02385434  0.75228085    -0.00600
Br1156     Br  0.91478314  0.04804440  0.87884521    -0.00600
Br1157     Br  0.86524620  0.09159648  0.90938673    -0.00600
C1158       C  0.79895415  0.25038040  0.83799760    -0.01700
C1159       C  0.81217246  0.26869930  0.79968519     0.08000
C1160       C  0.82551901  0.25273139  0.77010441    -0.01800
C1161       C  0.82468164  0.21794247  0.77821714    -0.01800
C1162       C  0.81242858  0.19955508  0.81712627     0.08100
C1163       C  0.79922010  0.21619161  0.84700157    -0.02000
Br1164     Br  0.77858499  0.19257789  0.89942207    -0.00600
Br1165     Br  0.77823776  0.27132217  0.87746774    -0.00600
Br1166     Br  0.83150749  0.19117350  0.73226812    -0.00600
Br1167     Br  0.84370930  0.27800878  0.71762635    -0.00600
C1168       C  0.98516497  0.05158655  0.44378415    -0.01700
C1169       C  0.97711222  0.03687263  0.48466281     0.08000
C1170       C  0.97112669  0.05894051  0.51516689    -0.01800
C1171       C  0.97497470  0.09495913  0.50553418    -0.01800
C1172       C  0.98288289  0.10911593  0.46481461     0.08100
C1173       C  0.98791975  0.08717211  0.43400730    -0.02000
Br1174     Br  0.49828003  0.10581267  0.37779897    -0.00600
Br1175     Br  0.48795027  0.02104250  0.39912670    -0.00600
Br1176     Br  0.96643620  0.12371916  0.54849315    -0.00600
Br1177     Br  0.95397009  0.54093962  0.56976856    -0.00600
C1178       C  0.51912879  0.36688177  0.54086517    -0.01700
C1179       C  0.99651319  0.33067601  0.52104809     0.08000
C1180       C  0.96754018  0.32713987  0.49312502    -0.01800
C1181       C  0.96776179  0.36039086  0.47891375    -0.01800
C1182       C  0.98633257  0.39508296  0.50288089     0.08100
C1183       C  0.50830223  0.39495949  0.53745139    -0.02000
Br1184     Br  0.51449355  0.42499866  0.58616748    -0.00600
Br1185     Br  0.56793423  0.38238356  0.56783636    -0.00600
Br1186     Br  0.94794726  0.35611901  0.42387827    -0.00600
Br1187     Br  0.92424575  0.27747130  0.47752732    -0.00600
C1188       C  0.85578320  0.34697383  0.44339733    -0.01700
C1189       C  0.84162044  0.31895344  0.47458153     0.08000
C1190       C  0.86089202  0.32695411  0.51311927    -0.01800
C1191       C  0.89418086  0.36280180  0.52060242    -0.01800
C1192       C  0.90942055  0.39097295  0.48907898     0.08100
C1193       C  0.88992105  0.38239192  0.45019091    -0.02000
Br1194     Br  0.91407654  0.41477155  0.40291914    -0.00600
Br1195     Br  0.82931453  0.33600527  0.39049496    -0.00600
Br1196     Br  0.91895744  0.37019343  0.57357833    -0.00600
Br1197     Br  0.84363428  0.28724425  0.55492744    -0.00600
C1198       C  0.55770076  0.05676744  0.54206505    -0.01700
C1199       C  0.55018189  0.04081040  0.50161660     0.08000
C1200       C  0.57557002  0.06258036  0.46950093    -0.01800
C1201       C  0.60444488  0.10093960  0.47672232    -0.01800
C1202       C  0.61408351  0.11523506  0.51756519     0.08100
C1203       C  0.59149607  0.09195034  0.55049789    -0.02000
Br1204     Br  0.60861476  0.10551165  0.60753112    -0.00600
Br1205     Br  0.52569088  0.52756578  0.58814838    -0.00600
Br1206     Br  0.62819736  0.13420494  0.42974359    -0.00600
Br1207     Br  0.57571790  0.04096636  0.41662939    -0.00600
C1208       C  0.58904379  0.48605765  0.51201761    -0.01700
C1209       C  0.55622955  0.46988749  0.48453817     0.08000
C1210       C  0.56057243  0.45588537  0.44557579    -0.01800
C1211       C  0.59457651  0.45521982  0.43600048    -0.01800
C1212       C  0.62604205  0.47084574  0.46385406     0.08100
C1213       C  0.62378007  0.48817536  0.50052636    -0.02000
Br1214     Br  0.67041621  0.01824616  0.53370868    -0.00600
Br1215     Br  0.59045037  0.00484360  0.56664933    -0.00600
Br1216     Br  0.59890481  0.43435473  0.38385987    -0.00600
Br1217     Br  0.52249562  0.44262450  0.40222585    -0.00600
C1218       C  0.85422059  0.45021191  0.55384834    -0.01700
C1219       C  0.82799841  0.44434164  0.52115241     0.08000
C1220       C  0.84037577  0.44535066  0.48036743    -0.01800
C1221       C  0.87945640  0.45910852  0.47245596    -0.01800
C1222       C  0.90461804  0.46002751  0.50433384     0.08100
C1223       C  0.89021880  0.45338378  0.54532256    -0.02000
Br1224     Br  0.92009763  0.45084142  0.59109484    -0.00600
Br1225     Br  0.84303885  0.45725380  0.61015044    -0.00600
Br1226     Br  0.89643197  0.48403949  0.42031153    -0.00600
Br1227     Br  0.80380982  0.42465405  0.43465894    -0.00600
C1228       C  0.78029901  0.30362286  0.17401914    -0.01700
C1229       C  0.78814588  0.29858863  0.13295124     0.08000
C1230       C  0.75947505  0.28951813  0.10226920    -0.01800
C1231       C  0.72460192  0.28820974  0.11242137    -0.01800
C1232       C  0.71609295  0.29201096  0.15417994     0.08100
C1233       C  0.74346716  0.29604124  0.18493112    -0.02000
Br1234     Br  0.73131191  0.28323854  0.24161959    -0.00600
Br1235     Br  0.82096231  0.32448954  0.21585490    -0.00600
Br1236     Br  0.68988382  0.28319097  0.06794956    -0.00600
Br1237     Br  0.76794049  0.27910575  0.04622475    -0.00600
C1238       C  0.50953852  0.28317867  0.14581161    -0.01700
C1239       C  0.49858158  0.28706824  0.18586603     0.05000
C1240       C  0.52613846  0.29890385  0.21833103    -0.01800
C1241       C  0.56225456  0.30201987  0.21150966    -0.01800
C1242       C  0.57405487  0.29990163  0.17086110     0.08100
C1243       C  0.54804039  0.29441440  0.13789414    -0.02000
Br1244     Br  0.56421939  0.31140751  0.08281174    -0.00600
Br1245     Br  0.97179046  0.26001698  0.10116446    -0.00600
Br1246     Br  0.59406977  0.30751729  0.25893715    -0.00600
Br1247     Br  0.51526978  0.31224934  0.27196763    -0.00600
C1248       C  0.76690331  0.41543428  0.22318543    -0.01700
C1249       C  0.78432475  0.44223332  0.19097182     0.08000
C1250       C  0.77122823  0.43066012  0.15004777    -0.01800
C1251       C  0.74292032  0.39245292  0.14139208    -0.01800
C1252       C  0.72081504  0.36739907  0.17364028     0.08100
C1253       C  0.73397520  0.37917011  0.21491906    -0.02000
Br1254     Br  0.70716405  0.34661269  0.26109343    -0.00600
Br1255     Br  0.78867882  0.42779080  0.27851341    -0.00600
Br1256     Br  0.74309293  0.37513124  0.08642023    -0.00600
Br1257     Br  0.78982794  0.46732757  0.10504821    -0.00600
C1258       C  0.52374275  0.17904164  0.10496151    -0.01700
C1259       C  0.50505285  0.15216420  0.13683744     0.08000
C1260       C  0.51880682  0.16243784  0.17776728    -0.01800
C1261       C  0.54842830  0.19994133  0.18708238    -0.01800
C1262       C  0.57063566  0.22550482  0.15518217     0.08100
C1263       C  0.55756452  0.21443812  0.11373875    -0.02000
Br1264     Br  0.58647562  0.24616464  0.06786630    -0.00600
Br1265     Br  0.00332562  0.16751310  0.04880075    -0.00600
Br1266     Br  0.55180319  0.21516903  0.24352885    -0.00600
Br1267     Br  0.49997192  0.12442443  0.22158395    -0.00600
C1268       C  0.65376100  0.17042343  0.15450319    -0.01700
C1269       C  0.65181834  0.15885785  0.19579607     0.08000
C1270       C  0.64393478  0.17849088  0.22691244    -0.01800
C1271       C  0.64160854  0.21150121  0.21692312    -0.01800
C1272       C  0.64156945  0.22202532  0.17496175     0.08100
C1273       C  0.64396961  0.19822488  0.14400647    -0.02000
Br1274     Br  0.62628231  0.19494295  0.08836402    -0.00600
Br1275     Br  0.67295382  0.15071841  0.11176365    -0.00600
Br1276     Br  0.64040808  0.24267375  0.26175204    -0.00600
Br1277     Br  0.63588458  0.16005163  0.28314740    -0.00600
C1278       C  0.65214733  0.38669857  0.11881693    -0.01700
C1279       C  0.64962373  0.37204855  0.15934015     0.08000
C1280       C  0.64502996  0.39286495  0.19231616    -0.01800
C1281       C  0.63452258  0.42071294  0.18431406    -0.01800
C1282       C  0.63830397  0.43583114  0.14431941     0.08100
C1283       C  0.64983901  0.42026066  0.11214007    -0.02000
Br1284     Br  0.66437198  0.44596522  0.05944680    -0.00600
Br1285     Br  0.65737892  0.36085546  0.07133653    -0.00600
Br1286     Br  0.61325144  0.43642298  0.22876964    -0.00600
Br1287     Br  0.66321103  0.39432784  0.24746140    -0.00600
C1288       C  0.62955692  0.96734093  0.13656142     0.03300
C1289       C  0.60197892  0.96238091  0.10668119    -0.12900
C1290       C  0.59150414  0.99036340  0.10149448     0.00800
C1291       C  0.60771989  0.52310508  0.12703026    -0.11400
C1292       C  0.63555604  0.52928808  0.15794505     0.03300
C1293       C  0.64697070  0.00116667  0.16096989    -0.10800
H1294       H  0.58771773  0.93610189  0.08831258     0.08900
H1295       H  0.59805938  0.54322755  0.12173251     0.06400
H1296       H  0.66854231  0.00388483  0.18275283     0.06200
C1297       C  0.65958707  0.62730748  0.20560465     0.03300
C1298       C  0.63973725  0.59171433  0.18445126    -0.12900
C1299       C  0.65233931  0.56450833  0.18637036     0.00800
C1300       C  0.68219195  0.57230466  0.21515717    -0.11400
C1301       C  0.70044730  0.60664269  0.23858063     0.03300
C1302       C  0.68990709  0.63450615  0.23245632    -0.10800
H1303       H  0.61589577  0.58718661  0.16521795     0.08900
H1304       H  0.69254056  0.55261510  0.21941088     0.06400
H1305       H  0.70565190  0.66219583  0.24810264     0.06200
C1306       C  0.97267924  0.61256814  0.12775219     0.03300
C1307       C  0.93860046  0.59647484  0.15088779    -0.12900
C1308       C  0.91174452  0.55631860  0.14996868     0.00800
C1309       C  0.91769781  0.53421091  0.11997007    -0.11400
C1310       C  0.94981913  0.55096195  0.09427253     0.03300
C1311       C  0.97784134  0.58946385  0.09935732    -0.10800
H1312       H  0.93506239  0.61587158  0.17085886     0.08900
H1313       H  0.89821007  0.50381283  0.11581776     0.06400
H1314       H  0.50455337  0.60105986  0.08218700     0.06200
C1315       C  0.81599249  0.98233724  0.19931786     0.03300
C1316       C  0.85048174  0.99809460  0.17717167    -0.12900
C1317       C  0.87825567  0.53784196  0.17973045     0.00800
C1318       C  0.87293319  0.55968821  0.21058384    -0.11400
C1319       C  0.83933916  0.54381742  0.23437681     0.03300
C1320       C  0.81041299  0.50558629  0.22740038    -0.10800
H1321       H  0.85376591  0.97868877  0.15696644     0.08900
H1322       H  0.89410627  0.58938562  0.21624278     0.06400
H1323       H  0.78343950  0.99377530  0.24345079     0.06200
C1324       C  0.95847766  0.77858876  0.19357618     0.03300
C1325       C  0.93657125  0.75220589  0.22394414    -0.12900
C1326       C  0.89902945  0.74396320  0.23207909     0.00800
C1327       C  0.88266252  0.76149264  0.20818244    -0.11400
C1328       C  0.90300873  0.78635049  0.17519307     0.03300
C1329       C  0.94162691  0.79543640  0.16946461    -0.10800
H1330       H  0.94904672  0.73800947  0.24132648     0.08900
H1331       H  0.85382366  0.75490176  0.21530772     0.06400
H1332       H  0.95910003  0.81463707  0.14547475     0.06200
C1333       C  0.82735882  0.80552220  0.12271988     0.03300
C1334       C  0.85065712  0.83546041  0.09598651    -0.12900
C1335       C  0.89011857  0.84899142  0.09453795     0.00800
C1336       C  0.90691435  0.83412080  0.12117439    -0.11400
C1337       C  0.88427643  0.80239950  0.14680745     0.03300
C1338       C  0.84381039  0.78715109  0.14538665    -0.10800
H1339       H  0.83863549  0.84992109  0.07829688     0.08900
H1340       H  0.93788986  0.84828092  0.12141917     0.06400
H1341       H  0.82472434  0.76267099  0.16387954     0.06200
C1342       C  0.64790251  0.83358394  0.16509591     0.02400
C1343       C  0.61092305  0.79878014  0.16430662     0.02400
C1344       C  0.60874749  0.76197219  0.16330057     0.02400
C1345       C  0.64329209  0.75975447  0.16483660     0.02400
C1346       C  0.68022933  0.79427629  0.16354843     0.02400
C1347       C  0.68254246  0.83118504  0.16536240     0.02400
O1348       O  0.87134368  0.64705068  0.41581860    -0.78400
C1349       C  0.79693611  0.69333704  0.40626122     0.82700
O1350       O  0.74593126  0.54427712  0.36108682    -0.79500
O1351       O  0.75369310  0.64805095  0.28200243    -0.81000
O1352       O  0.88774782  0.69169432  0.27479593    -0.80800
O1353       O  0.90587151  0.65500234  0.35921016    -0.79400
Zn1354     Zn  0.81754309  0.63058427  0.39538691     1.55700
O1355       O  0.84556332  0.71208769  0.27732233    -0.80800
Cd1356     Cd  0.86657115  0.64446503  0.31243948     1.59700
Cd1357     Cd  0.77604391  0.58120879  0.31387065     1.59600
O1358       O  0.86169796  0.60044498  0.27533446    -0.80800
O1359       O  0.81609494  0.63244705  0.33547789    -1.91300
Cd1360     Cd  0.80404125  0.67273739  0.31679130     1.59900
O1361       O  0.79938682  0.55637130  0.27736427    -0.80700
O1362       O  0.79834011  0.70068605  0.36772904    -0.79400
C1363       C  0.75277578  0.54694061  0.39983464     0.83200
C1364       C  0.90278989  0.65520745  0.39834099     0.82800
O1365       O  0.80219054  0.66673991  0.42035666    -0.78300
C1366       C  0.87629969  0.71463472  0.26340387     0.83600
O1367       O  0.78042829  0.57713231  0.41651131    -0.78400
C1368       C  0.83323569  0.56805260  0.26425524     0.83800
C1369       C  0.73216800  0.61414527  0.26753310     0.84100
O1370       O  0.73752948  0.58642349  0.27672199    -0.80900
C1371       C  0.78843048  0.93830572  0.52888929     0.03300
C1372       C  0.76472765  0.91211716  0.55869539    -0.12900
C1373       C  0.72788698  0.90613019  0.56568827     0.00800
C1374       C  0.71297014  0.92413597  0.54056824    -0.11400
C1375       C  0.73519813  0.94976605  0.50887109     0.03300
C1376       C  0.77369090  0.95753928  0.50496465    -0.10800
H1377       H  0.77452496  0.89545744  0.57592594     0.08900
H1378       H  0.68406932  0.91777589  0.54666019     0.06400
H1379       H  0.79269949  0.97758867  0.48246639     0.06200
C1380       C  0.66359618  0.97380028  0.45377490     0.03300
C1381       C  0.68789246  0.50209658  0.42631879    -0.12900
C1382       C  0.72718248  0.51454993  0.42621282     0.00800
C1383       C  0.74241935  0.99835085  0.45342159    -0.11400
C1384       C  0.71840827  0.96766780  0.47990256     0.03300
C1385       C  0.67839796  0.95534406  0.47888547    -0.10800
H1386       H  0.67689271  0.51690790  0.40756573     0.08900
H1387       H  0.77314036  0.51066970  0.45353271     0.06400
H1388       H  0.65835411  0.93306075  0.49898374     0.06200
C1389       C  0.64722911  0.65439295  0.52622317     0.03300
C1390       C  0.68340776  0.66750483  0.50811118    -0.12900
C1391       C  0.71422207  0.70558024  0.51491568     0.00800
C1392       C  0.70932262  0.72755521  0.54598060    -0.11400
C1393       C  0.67355898  0.71404973  0.56448760     0.03300
C1394       C  0.64227699  0.67899375  0.55249177    -0.10800
H1395       H  0.68630050  0.64783350  0.48790494     0.08900
H1396       H  0.73257194  0.75528090  0.55604774     0.06400
H1397       H  0.61410806  0.67021540  0.56495398     0.06200
C1398       C  0.80989341  0.77931160  0.46582370     0.03300
C1399       C  0.81600726  0.75628447  0.43818534    -0.12900
C1400       C  0.78983664  0.71689635  0.43549980     0.00800
C1401       C  0.75797018  0.70001639  0.46170288    -0.11400
C1402       C  0.74994761  0.72286415  0.48866991     0.03300
C1403       C  0.77604303  0.76310132  0.48894559    -0.10800
H1404       H  0.84209028  0.76873598  0.42011382     0.08900
H1405       H  0.73982184  0.66914315  0.45999604     0.06400
H1406       H  0.77163493  0.78257811  0.50796290     0.06200
C1407       C  0.50272876  0.79720422  0.52907020     0.03300
C1408       C  0.99792953  0.77113878  0.49696078    -0.12900
C1409       C  0.00132816  0.73833747  0.50446547     0.00800
C1410       C  0.51689653  0.73619638  0.54285372    -0.11400
C1411       C  0.52572570  0.76399847  0.57375137     0.03300
C1412       C  0.51465655  0.79162357  0.56836491    -0.10800
H1413       H  0.99128755  0.77625929  0.46595102     0.08900
H1414       H  0.52339252  0.71363996  0.54905781     0.06400
H1415       H  0.51852852  0.81065496  0.59393781     0.06200
C1416       C  0.97834057  0.64275069  0.45357596     0.03300
C1417       C  0.99955496  0.67867796  0.47405194    -0.12900
C1418       C  0.98658152  0.70562715  0.47367746     0.00800
C1419       C  0.95498419  0.69777712  0.44771329    -0.11400
C1420       C  0.93633459  0.66386239  0.42411301     0.03300
C1421       C  0.94741486  0.63623365  0.42780820    -0.10800
H1422       H  0.52413995  0.68375622  0.49299620     0.08900
H1423       H  0.94346786  0.71696974  0.44690531     0.06400
H1424       H  0.93037716  0.60856637  0.41242106     0.06200
C1425       C  0.98293140  0.93084713  0.49533709     0.02400
C1426       C  0.94609243  0.92897197  0.49512177     0.02400
C1427       C  0.94356839  0.96349070  0.49600353     0.02400
C1428       C  0.97817276  0.00021688  0.49409334     0.02400
C1429       C  0.51494872  0.50213421  0.49446479     0.02400
C1430       C  0.51779262  0.96789849  0.49365934     0.02400
C1431       C  0.80704570  0.80166835  0.78868184     0.03300
C1432       C  0.77630176  0.79525972  0.76264842    -0.12900
C1433       C  0.76683244  0.82408297  0.75661965     0.00800
C1434       C  0.78815344  0.85929361  0.77788337    -0.11400
C1435       C  0.81919258  0.86641269  0.80456176     0.03300
C1436       C  0.82922191  0.83754694  0.80830815    -0.10800
H1437       H  0.75908919  0.76721432  0.74811547     0.08900
H1438       H  0.77880551  0.88013697  0.77529592     0.06400
H1439       H  0.85302251  0.84172854  0.82787992     0.06200
C1440       C  0.84288403  0.96344316  0.85040382     0.03300
C1441       C  0.83586204  0.93481582  0.82082010    -0.12900
C1442       C  0.83717259  0.90153387  0.83198955     0.00800
C1443       C  0.85377132  0.90167190  0.87077598    -0.11400
C1444       C  0.86546405  0.93270133  0.89842006     0.03300
C1445       C  0.85513377  0.96026071  0.89011415    -0.10800
H1446       H  0.82867427  0.93817664  0.78936741     0.08900
H1447       H  0.85843632  0.87841104  0.87959313     0.06400
H1448       H  0.85970634  0.98120386  0.91388977     0.06200
C1449       C  0.64858165  0.94093075  0.80936732     0.03300
C1450       C  0.65214372  0.91847474  0.77880248    -0.12900
C1451       C  0.62239927  0.88079080  0.77107846     0.00800
C1452       C  0.58850186  0.86591425  0.79446296    -0.11400
C1453       C  0.58443606  0.88777659  0.82659987     0.03300
C1454       C  0.61539581  0.92574964  0.83330523    -0.10800
H1455       H  0.67850026  0.93066722  0.76119557     0.08900
H1456       H  0.56564441  0.83728295  0.78684121     0.06400
H1457       H  0.61495814  0.94435867  0.85655384     0.06200
C1458       C  0.97970637  0.82221140  0.85902497     0.03300
C1459       C  0.97380604  0.84806147  0.88211762    -0.12900
C1460       C  0.50496641  0.88288616  0.89610717     0.00800
C1461       C  0.54138404  0.89567938  0.87903381    -0.11400
C1462       C  0.54753832  0.87221086  0.85092610     0.03300
C1463       C  0.51703022  0.83385291  0.84547129    -0.10800
H1464       H  0.94483233  0.83992530  0.89129856     0.08900
H1465       H  0.56382190  0.92366833  0.88802208     0.06400
H1466       H  0.52136810  0.81263865  0.82991716     0.06200
C1467       C  0.62340055  0.60041302  0.85601354     0.03300
C1468       C  0.60525200  0.58701433  0.89433841    -0.12900
C1469       C  0.56651277  0.57619667  0.89959506     0.00800
C1470       C  0.54835331  0.58705677  0.86962628    -0.11400
C1471       C  0.56645551  0.60356719  0.83186377     0.03300
C1472       C  0.60236823  0.60629935  0.82421776    -0.10800
H1473       H  0.62063723  0.58366841  0.92008343     0.08900
H1474       H  0.51994940  0.58207272  0.87617484     0.06400
H1475       H  0.61431207  0.61371861  0.79358823     0.06200
C1476       C  0.99563933  0.63001156  0.78275725     0.03300
C1477       C  0.50970963  0.60888914  0.80367327    -0.12900
C1478       C  0.54919940  0.61997453  0.80207430     0.00800
C1479       C  0.57324139  0.65107645  0.77595257    -0.11400
C1480       C  0.55877518  0.67135545  0.75368816     0.03300
C1481       C  0.51999956  0.66042011  0.75742786    -0.10800
H1482       H  0.98985003  0.58535003  0.82282629     0.08900
H1483       H  0.60376514  0.66146215  0.77489135     0.06400
H1484       H  0.50887538  0.67699124  0.74235484     0.06200
C1485       C  0.81455903  0.66355711  0.82457884     0.02400
C1486       C  0.78049097  0.62646173  0.82768803     0.02400
C1487       C  0.78444790  0.59264252  0.82780040     0.02400
C1488       C  0.82187560  0.59613937  0.82539322     0.02400
C1489       C  0.85591529  0.63363551  0.82299057     0.02400
C1490       C  0.85201726  0.66709646  0.82420720     0.02400
O1491       O  0.52939378  0.97900368  0.08594127    -0.78400
C1492       C  0.95709313  0.52697408  0.06623295     0.82700
O1493       O  0.91083580  0.87532207  0.02833749    -0.79500
O1494       O  0.91644281  0.97540393  0.94306970    -0.81000
O1495       O  0.55707259  0.52916476  0.94971660    -0.80800
O1496       O  0.56631151  0.98259093  0.03312500    -0.79400
Zn1497     Zn  0.97790164  0.96442428  0.06130781     1.55700
O1498       O  0.50968572  0.54201028  0.94009285    -0.80800
Cd1499     Cd  0.53141050  0.97836790  0.98296219     1.59700
Cd1500     Cd  0.93986123  0.91267234  0.98104886     1.59600
O1501       O  0.52716385  0.93751111  0.94078715    -0.80800
O1502       O  0.97899587  0.96495451  0.00166985    -1.91300
Cd1503     Cd  0.96624478  0.50347375  0.97908417     1.59900
O1504       O  0.96533806  0.89184497  0.94269186    -0.80700
O1505       O  0.95840762  0.53279505  0.02734295    -0.79400
C1506       C  0.91464589  0.88073879  0.06727271     0.83200
C1507       C  0.56088555  0.98374885  0.07179412     0.82800
O1508       O  0.96295848  0.50150728  0.08220732    -0.78300
C1509       C  0.54358174  0.54854795  0.93255524     0.83600
O1510       O  0.93940324  0.91275064  0.08342026    -0.78400
C1511       C  0.99902178  0.90542182  0.92818672     0.83800
C1512       C  0.89439127  0.94060349  0.93112479     0.84100
O1513       O  0.89902024  0.91329629  0.94365045    -0.80900
O1514       O  0.65648730  0.75987162  0.58111870    -0.78400
C1515       C  0.55674427  0.77147667  0.60341583     0.82700
O1516       O  0.71243339  0.88228415  0.63430830    -0.79500
O1517       O  0.59954435  0.82342280  0.73050553    -0.81000
O1518       O  0.61717256  0.71246142  0.71843728    -0.80800
O1519       O  0.67012969  0.73199609  0.63293559    -0.79400
Zn1520     Zn  0.64106834  0.79461083  0.60679367     1.55700
O1521       O  0.57211377  0.72932648  0.72028623    -0.80800
Cd1522     Cd  0.65989348  0.75626867  0.68391099     1.59700
Cd1523     Cd  0.68562373  0.84707611  0.68516375     1.59600
O1524       O  0.70977956  0.78177235  0.71902427    -0.80800
O1525       O  0.64489742  0.79478507  0.66616961    -1.91300
Cd1526     Cd  0.59334684  0.78100951  0.68901395     1.59900
O1527       O  0.72786772  0.84405637  0.72018501    -0.80700
O1528       O  0.55323209  0.77386418  0.64233218    -0.79400
C1529       C  0.70349679  0.87698851  0.59587064     0.83200
C1530       C  0.66722067  0.73711123  0.59453233     0.82800
O1531       O  0.58799082  0.77718812  0.58781103    -0.78300
C1532       C  0.58418619  0.70623326  0.72946418     0.83600
O1533       O  0.67522626  0.84590569  0.58205265    -0.78400
C1534       C  0.73307252  0.81631549  0.73045667     0.83800
C1535       C  0.62770567  0.85681594  0.73970464     0.84100
O1536       O  0.66083383  0.86999298  0.72342186    -0.80900
C1537       C  0.92818675  0.61455644  0.76643832    -0.01700
C1538       C  0.95908142  0.62778159  0.79469198     0.08000
C1539       C  0.95871086  0.64662823  0.83112863    -0.01800
C1540       C  0.92696458  0.65111865  0.84035189    -0.01800
C1541       C  0.89422838  0.63610794  0.81287409     0.08100
C1542       C  0.89663363  0.61958891  0.77483421    -0.02000
Br1543     Br  0.85956382  0.60900421  0.73100852    -0.00600
Br1544     Br  0.92983773  0.59020374  0.71560409    -0.00600
Br1545     Br  0.93240795  0.67894975  0.89073172    -0.00600
Br1546     Br  0.00352368  0.66811471  0.86786201    -0.00600
C1547       C  0.71831154  0.59996004  0.86833949    -0.01700
C1548       C  0.74060237  0.62203943  0.83451992     0.08000
C1549       C  0.72349446  0.63903416  0.80966987    -0.01800
C1550       C  0.68943793  0.63768963  0.82254037    -0.01800
C1551       C  0.66393645  0.60815321  0.84928371     0.08100
C1552       C  0.67873518  0.58708121  0.86990599    -0.02000
Br1553     Br  0.64671020  0.53774507  0.89554730    -0.00600
Br1554     Br  0.74215922  0.59545480  0.91813063    -0.00600
Br1555     Br  0.68247190  0.68045516  0.80775490    -0.00600
Br1556     Br  0.73924446  0.65914416  0.75514389    -0.00600
C1557       C  0.94116016  0.76743177  0.80927528    -0.01700
C1558       C  0.94678059  0.78285060  0.84969538     0.08000
C1559       C  0.92161382  0.75993329  0.88136720    -0.01800
C1560       C  0.89042691  0.72302078  0.87205074    -0.01800
C1561       C  0.88634186  0.70652732  0.83218610     0.08100
C1562       C  0.91363014  0.72858774  0.80152273    -0.02000
Br1563     Br  0.91817067  0.70705101  0.75018851    -0.00600
Br1564     Br  0.96910753  0.79999351  0.76310319    -0.00600
Br1565     Br  0.85865793  0.69149999  0.91698538    -0.00600
Br1566     Br  0.93145986  0.77648656  0.93879497    -0.00600
C1567       C  0.68921054  0.50909917  0.78707343    -0.01700
C1568       C  0.68070971  0.98042634  0.81692299     0.08000
C1569       C  0.70498679  0.98826577  0.85153308    -0.01800
C1570       C  0.73831937  0.52467754  0.85618274    -0.01800
C1571       C  0.74836269  0.55347616  0.82531653     0.08100
C1572       C  0.72346089  0.54472642  0.79040583    -0.02000
Br1573     Br  0.73956631  0.57756259  0.74245585    -0.00600
Br1574     Br  0.65404396  0.49895968  0.74121503    -0.00600
Br1575     Br  0.76918976  0.53216876  0.90510293    -0.00600
Br1576     Br  0.69304406  0.94799716  0.89147409    -0.00600
C1577       C  0.80686225  0.52705901  0.80423428    -0.01700
C1578       C  0.82691441  0.56112844  0.82900737     0.08000
C1579       C  0.85278209  0.56142991  0.85932712    -0.01800
C1580       C  0.86386049  0.53368436  0.85821628    -0.01800
C1581       C  0.83852668  0.99728303  0.84047632     0.08100
C1582       C  0.80772605  0.99372678  0.81575320    -0.02000
Br1583     Br  0.76360330  0.94417463  0.80168863    -0.00600
Br1584     Br  0.78223449  0.52388151  0.75211332    -0.00600
Br1585     Br  0.91480230  0.54811451  0.87871697    -0.00600
Br1586     Br  0.86519907  0.59161280  0.90924983    -0.00600
C1587       C  0.79902609  0.75044014  0.83785163    -0.01700
C1588       C  0.81224571  0.76876050  0.79954039     0.08000
C1589       C  0.82557800  0.75278532  0.76995246    -0.01800
C1590       C  0.82471844  0.71798359  0.77805555    -0.01800
C1591       C  0.81247154  0.69959824  0.81696717     0.08100
C1592       C  0.79928165  0.71624575  0.84685025    -0.02000
Br1593     Br  0.77865400  0.69264115  0.89927501    -0.00600
Br1594     Br  0.77831710  0.77138603  0.87732773    -0.00600
Br1595     Br  0.83150466  0.69119983  0.73209499    -0.00600
Br1596     Br  0.84378235  0.77807359  0.71748190    -0.00600
C1597       C  0.98508862  0.55158979  0.44368398    -0.01700
C1598       C  0.97705822  0.53685508  0.48455613     0.08000
C1599       C  0.97105644  0.55889631  0.51508381    -0.01800
C1600       C  0.97489295  0.59491680  0.50548480    -0.01800
C1601       C  0.98277507  0.60908890  0.46477174     0.08100
C1602       C  0.98780616  0.58716488  0.43393686    -0.02000
Br1603     Br  0.49844502  0.60580567  0.37785516    -0.00600
Br1604     Br  0.48799175  0.52099231  0.39924128    -0.00600
Br1605     Br  0.96638031  0.62366404  0.54848230    -0.00600
Br1606     Br  0.95406499  0.04102245  0.56986785    -0.00600
C1607       C  0.51919248  0.86692344  0.54075749    -0.01700
C1608       C  0.99643833  0.83063775  0.52116619     0.08000
C1609       C  0.96745689  0.82710855  0.49325954    -0.01800
C1610       C  0.96767657  0.86036275  0.47906577    -0.01800
C1611       C  0.98625490  0.89504699  0.50304176     0.08100
C1612       C  0.50836875  0.89500283  0.53731999    -0.02000
Br1613     Br  0.51454167  0.92504469  0.58602729    -0.00600
Br1614     Br  0.56798758  0.88242458  0.56775205    -0.00600
Br1615     Br  0.94783609  0.85610821  0.42404468    -0.00600
Br1616     Br  0.92414887  0.77744554  0.47767517    -0.00600
C1617       C  0.85572049  0.84698240  0.44357915    -0.01700
C1618       C  0.84159204  0.81894616  0.47474536     0.08000
C1619       C  0.86086851  0.82694839  0.51327988    -0.01800
C1620       C  0.89413767  0.86281051  0.52077207    -0.01800
C1621       C  0.90936478  0.89098719  0.48925274     0.08100
C1622       C  0.88984779  0.88240958  0.45037416    -0.02000
Br1623     Br  0.91396766  0.91480337  0.40310547    -0.00600
Br1624     Br  0.82921689  0.83602323  0.39069879    -0.00600
Br1625     Br  0.91889538  0.87022673  0.57376267    -0.00600
Br1626     Br  0.84363929  0.78722732  0.55507176    -0.00600
C1627       C  0.55770218  0.55671624  0.54223909    -0.01700
C1628       C  0.55019332  0.54076982  0.50178522     0.08000
C1629       C  0.57558438  0.56254845  0.46967766    -0.01800
C1630       C  0.60444338  0.60091014  0.47690639    -0.01800
C1631       C  0.61407315  0.61520022  0.51775143     0.08100
C1632       C  0.59148677  0.59190726  0.55068022    -0.02000
Br1633     Br  0.60858339  0.60547984  0.60771679    -0.00600
Br1634     Br  0.52569432  0.02763674  0.58798429    -0.00600
Br1635     Br  0.62817454  0.63418890  0.42993229    -0.00600
Br1636     Br  0.57576108  0.54094423  0.41681002    -0.00600
C1637       C  0.58908527  0.98615918  0.51190032    -0.01700
C1638       C  0.55627425  0.96995777  0.48441513     0.08000
C1639       C  0.56063786  0.95595375  0.44546364    -0.01800
C1640       C  0.59465625  0.95530870  0.43590976    -0.01800
C1641       C  0.62611677  0.97096507  0.46376925     0.08100
C1642       C  0.62383832  0.98830931  0.50042108    -0.02000
Br1643     Br  0.67036267  0.51805795  0.53382390    -0.00600
Br1644     Br  0.59043839  0.50476381  0.56676325    -0.00600
Br1645     Br  0.59900956  0.93442695  0.38379244    -0.00600
Br1646     Br  0.52256340  0.94264887  0.40210233    -0.00600
C1647       C  0.85420906  0.95028652  0.55393394    -0.01700
C1648       C  0.82799425  0.94438816  0.52122192     0.08000
C1649       C  0.84039317  0.94539791  0.48044656    -0.01800
C1650       C  0.87948154  0.95917856  0.47256293    -0.01800
C1651       C  0.90462553  0.96008759  0.50445608     0.08100
C1652       C  0.89020910  0.95345313  0.54543722    -0.02000
Br1653     Br  0.92005561  0.95090243  0.59123562    -0.00600
Br1654     Br  0.84301915  0.95738917  0.61021071    -0.00600
Br1655     Br  0.89649156  0.98420757  0.42046918    -0.00600
Br1656     Br  0.80385938  0.92469515  0.43471160    -0.00600
C1657       C  0.78028200  0.80360477  0.17381843    -0.01700
C1658       C  0.78815817  0.79856510  0.13276410     0.08000
C1659       C  0.75951280  0.78950845  0.10205267    -0.01800
C1660       C  0.72464224  0.78822308  0.11216553    -0.01800
C1661       C  0.71610030  0.79201103  0.15391459     0.08100
C1662       C  0.74343925  0.79600895  0.18469276    -0.02000
Br1663     Br  0.73120221  0.78306597  0.24134370    -0.00600
Br1664     Br  0.82091106  0.82449780  0.21568955    -0.00600
Br1665     Br  0.68996180  0.78322577  0.06766082    -0.00600
Br1666     Br  0.76800334  0.77907655  0.04602571    -0.00600
C1667       C  0.50957402  0.78322582  0.14555552    -0.01700
C1668       C  0.49862442  0.78710748  0.18561839     0.05000
C1669       C  0.52619569  0.79897421  0.21807240    -0.01800
C1670       C  0.56232778  0.80213423  0.21123713    -0.01800
C1671       C  0.57409561  0.79995730  0.17059186     0.08100
C1672       C  0.54807040  0.79443871  0.13762980    -0.02000
Br1673     Br  0.56424715  0.81129517  0.08251286    -0.00600
Br1674     Br  0.97175216  0.75992051  0.10139324    -0.00600
Br1675     Br  0.59421195  0.80775937  0.25864630    -0.00600
Br1676     Br  0.51531097  0.81227475  0.27172635    -0.00600
C1677       C  0.76692410  0.91545251  0.22290524    -0.01700
C1678       C  0.78429480  0.94227472  0.19070080     0.08000
C1679       C  0.77118282  0.93070586  0.14977862    -0.01800
C1680       C  0.74291250  0.89248593  0.14111753    -0.01800
C1681       C  0.72084269  0.86741076  0.17336480     0.08100
C1682       C  0.73402011  0.87917141  0.21463907    -0.02000
Br1683     Br  0.70724963  0.84658516  0.26080834    -0.00600
Br1684     Br  0.78873753  0.92779436  0.27821724    -0.00600
Br1685     Br  0.74311746  0.87516800  0.08615055    -0.00600
Br1686     Br  0.78971748  0.96738447  0.10479073    -0.00600
C1687       C  0.52378916  0.67903730  0.10463096    -0.01700
C1688       C  0.50500613  0.65222933  0.13654471     0.08000
C1689       C  0.51868185  0.66257767  0.17749192    -0.01800
C1690       C  0.54834483  0.70007312  0.18676651    -0.01800
C1691       C  0.57063688  0.72555387  0.15485034     0.08100
C1692       C  0.55761853  0.71443303  0.11340173    -0.02000
Br1693     Br  0.58658322  0.74611605  0.06752464    -0.00600
Br1694     Br  0.00314890  0.66763188  0.04910981    -0.00600
Br1695     Br  0.55171613  0.71540479  0.24317494    -0.00600
Br1696     Br  0.49970737  0.62466459  0.22140935    -0.00600
C1697       C  0.65388584  0.67051347  0.15429640    -0.01700
C1698       C  0.65186630  0.65892634  0.19559027     0.08000
C1699       C  0.64390232  0.67853318  0.22666939    -0.01800
C1700       C  0.64154539  0.71151972  0.21663943    -0.01800
C1701       C  0.64155870  0.72204311  0.17466911     0.08100
C1702       C  0.64405505  0.69827432  0.14374676    -0.02000
Br1703     Br  0.62641595  0.69494457  0.08807711    -0.00600
Br1704     Br  0.67325219  0.65090969  0.11163688    -0.00600
Br1705     Br  0.64027713  0.74269173  0.26142821    -0.00600
Br1706     Br  0.63581042  0.66011568  0.28291452    -0.00600
C1707       C  0.65214541  0.88679288  0.11870481    -0.01700
C1708       C  0.64965370  0.87208836  0.15919366     0.08000
C1709       C  0.64499321  0.89281157  0.19222111    -0.01800
C1710       C  0.63432291  0.92054544  0.18429032    -0.01800
C1711       C  0.63810671  0.93574541  0.14434074     0.08100
C1712       C  0.64975934  0.92032252  0.11212255    -0.02000
Br1713     Br  0.66437085  0.94619789  0.05952706    -0.00600
Br1714     Br  0.65744885  0.86108300  0.07115102    -0.00600
Br1715     Br  0.61288902  0.93601758  0.22878811    -0.00600
Br1716     Br  0.66351245  0.89452708  0.24726335    -0.00600
loop_ 
_geom_bond_atom_site_label_1 
_geom_bond_atom_site_label_2 
_geom_bond_distance 
_geom_bond_site_symmetry_2 
_ccdc_geom_bond_type 
C1            C2   1.398       .  A
C1            C6   1.409       .  A
C1          C424   1.494       .  S
C2            C3   1.395       .  A
C2            H7   1.085       .  S
C3          C433   1.402       .  A
C3          C220   1.466       .  S
C4            C5   1.417       .  A
C4          C432   1.402   1_545  A
C4            H8   1.072       .  S
C5          C435   1.421       .  A
C5           C12   1.524       .  S
C6          C434   1.421       .  A
C6            H9   1.072       .  S
C10          C11   1.409       .  A
C10          C15   1.394       .  A
C10         C411   1.487       .  S
C11          C12   1.418       .  A
C11          H16   1.072       .  S
C12          C13   1.414       .  A
C13          C14   1.407       .  A
C13          H17   1.071       .  S
C14          C15   1.396       .  A
C14          C82   1.476       .  S
C15          H18   1.085       .  S
C19          C20   1.409       .  A
C19          C24   1.394       .  A
C19        C1259   1.488       .  S
C20          C21   1.419       .  A
C20          H25   1.075       .  S
C21          C22   1.415       .  A
C21          C30   1.521       .  S
C22          C23   1.400       .  A
C22          H26   1.076       .  S
C23          C24   1.389       .  A
C23         C205   1.457       .  S
C24         H885   1.084       .  S
H27         C882   1.084   1_455  S
C28          C29   1.405       .  A
C28         C462   1.396       .  A
C28         C391   1.489       .  S
C29         C459   1.416       .  A
C29          H34   1.076       .  S
C30          C31   1.415       .  A
C30         C458   1.416   1_545  A
C31          C32   1.407       .  A
C31          H35   1.075       .  S
C32          C33   1.399       .  A
C32          C81   1.478       .  S
C33         C457   1.396   1_545  A
C33         H465   1.084   1_545  S
H36         C462   1.084       .  S
C37          C38   1.394       .  A
C37          C42   1.406       .  A
C37        C1239   1.494       .  S
C38          C39   1.401       .  A
C38          H43   1.084       .  S
C39          C40   1.408       .  A
C39          C79   1.479       .  S
C40          C41   1.415       .  A
C40          H44   1.079       .  S
C41          C42   1.419       .  A
C41          C50   1.517       .  S
C42          H45   1.076       .  S
C46          C47   1.399       .  A
C46          C51   1.415       .  A
C46         C371   1.495       .  S
C47          C48   1.395       .  A
C47          H52   1.084       .  S
C48          C49   1.396       .  A
C48         C219   1.460       .  S
C49          C50   1.411       .  A
C49          H53   1.077       .  S
C50          C51   1.421       .  A
C51          H54   1.079       .  S
C55          C56   1.439       .  A
C55          C60   1.443       .  A
C55         C421   1.525       .  S
C56          C57   1.437       .  A
C56         C384   1.520       .  S
C57          C58   1.436       .  A
C57         C404   1.515       .  S
C58          C59   1.434       .  A
C58         C414   1.515       .  S
C59          C60   1.439       .  A
C59         C374   1.525       .  S
C60         C394   1.513       .  S
O61          C77   1.274       .  A
O61         Zn67   2.019       .  S
C62         C113   1.465       .  S
C62          O78   1.273       .  A
C62          O75   1.276       .  A
O63          C76   1.272       .  A
O63         Cd70   2.057       .  S
O64          C82   1.275       .  A
O64         Cd73   2.066       .  S
O65          C79   1.273       .  A
O65         Cd69   2.051       .  S
O66          C77   1.273       .  A
O66         Cd69   2.057       .  S
Zn67         O78   2.013       .  S
Zn67         O80   2.026       .  S
Zn67         O72   1.939       .  S
O68          C79   1.274       .  A
O68         Cd73   2.075       .  S
Cd69         O71   2.060       .  S
Cd69         O72   1.988       .  S
Cd70         O74   2.057       .  S
Cd70         O83   2.042       .  S
Cd70         O72   1.988       .  S
O71          C81   1.273       .  A
O72         Cd73   2.001       .  S
Cd73         O75   2.070       .  S
O74          C81   1.273       .  A
C76          C95   1.467       .  S
C76          O80   1.275       .  A
C77         C133   1.461       .  S
C82          O83   1.271       .  A
C84          C85   1.399       .  A
C84          C89   1.414       .  A
C84         C361   1.506       .  S
C85          C86   1.397       .  A
C85          H90   1.084       .  S
C86          C87   1.403       .  A
C86         C242   1.467       .  S
C87          C88   1.416       .  A
C87          H91   1.077       .  S
C88          C89   1.423       .  A
C88          C97   1.525       .  S
C89          H92   1.075       .  S
C93          C98   1.413       .  A
C93         C523   1.396       .  A
C93         C354   1.492       .  S
C94          C95   1.396       .  A
C94         C522   1.396   1_545  A
C94          H99   1.085       .  S
C95         C525   1.401   1_545  A
C96          C97   1.416       .  A
C96         C524   1.401       .  A
C96         H529   1.076       .  S
C97          C98   1.425       .  A
C98         H101   1.077       .  S
H100        C525   1.076   1_545  S
C102        C103   1.408       .  A
C102        C107   1.392       .  A
C102        C344   1.486       .  S
C103        C104   1.417       .  A
C103        H108   1.076       .  S
C104        C105   1.415       .  A
C104        C115   1.513       .  S
C105        C106   1.397       .  A
C105        H109   1.079       .  S
C106        C107   1.385       .  A
C106        C243   1.452       .  S
C107        H110   1.085       .  S
C111        C112   1.395       .  A
C111        C116   1.402       .  A
C111        C331   1.480       .  S
C112        C113   1.393       .  A
C112        H117   1.085       .  S
C113        C114   1.403       .  A
C114        C115   1.417       .  A
C114        H118   1.078       .  S
C115        C116   1.416       .  A
C116        H119   1.078       .  S
C120        C125   1.410       .  A
C120        C979   1.416   1_455  A
C120       C1179   1.508   1_455  S
C121        C122   1.413       .  A
C121        C978   1.416       .  A
C121        H126   1.081       .  S
C122        C981   1.405       .  A
C122        C131   1.506       .  S
C123        C124   1.400       .  A
C123        C980   1.405       .  A
C123        H127   1.080       .  S
C124        C125   1.399       .  A
C124        C228   1.470       .  S
C125        H128   1.081       .  S
C129        C130   1.412       .  A
C129        C134   1.399       .  A
C129        C314   1.495       .  S
C130        C131   1.419       .  A
C130        H993   1.081       .  S
C131        C132   1.410       .  A
C132        C133   1.399       .  A
C132        H136   1.081       .  S
C133        C134   1.393       .  A
C134        H137   1.085       .  S
H135        C988   1.081   1_455  S
C138        C139   1.444       .  A
C138       C1001   1.442       .  A
C138        C324   1.530       .  S
C139        C140   1.441       .  A
C139        C334   1.506       .  S
C140        C141   1.432       .  A
C140        C364   1.529       .  S
C141       C1429   1.441       .  A
C141        C740   1.526       .  S
C142       C1428   1.441   1_455  A
C142        C572   1.438   1_545  A
C142        C341   1.500       .  S
C143        C996   1.442   1_455  A
C143        C571   1.438       .  A
C143        C351   1.539       .  S
C144        C145   1.399       .  A
C144        C149   1.402       .  A
C144        C301   1.481       .  S
C145        C146   1.402       .  A
C145        H150   1.084       .  S
C146        C147   1.404       .  A
C146        C247   1.484       .  S
C147        C148   1.414       .  A
C147        H151   1.080       .  S
C148        C149   1.411       .  A
C148        C155   1.502       .  S
C149        H152   1.081       .  S
C153        C154   1.407       .  A
C153        C158   1.398       .  A
C153        C294   1.490       .  S
C154        C155   1.412       .  A
C154        H159   1.081       .  S
C155        C156   1.412       .  A
C156        C157   1.404       .  A
C156        H160   1.080       .  S
C157        C158   1.390       .  A
C157        C225   1.473       .  S
C158        H161   1.082       .  S
C162        C163   1.393       .  A
C162        C167   1.398       .  A
C162        C281   1.474       .  S
C163        C164   1.398       .  A
C163        H168   1.085       .  S
C164        C165   1.410       .  A
C164        C248   1.487       .  S
C165        C166   1.422       .  A
C165        H169   1.076       .  S
C166        C167   1.416       .  A
C166        C175   1.517       .  S
C167        H170   1.066       .  S
C171        C172   1.393       .  A
C171       C1034   1.407       .  A
C171        C271   1.492       .  S
C172       C1031   1.397       .  A
C172        H177   1.084       .  S
C173        C174   1.404       .  A
C173       C1030   1.397   1_455  A
C173       C1082   1.478   1_455  S
C174        C175   1.419       .  A
C174        H178   1.065       .  S
C175        C176   1.415       .  A
C176       C1029   1.407   1_455  A
C176        H179   1.077       .  S
C180        C181   1.408       .  A
C180        C185   1.418       .  A
C180        C264   1.515       .  S
C181        C182   1.402       .  A
C181        H186   1.080       .  S
C182        C183   1.403       .  A
C182        C222   1.487       .  S
C183        C184   1.412       .  A
C183        H187   1.079       .  S
C184        C185   1.416       .  A
C184        C191   1.513       .  S
C185        H188   1.080       .  S
C189       C1048   1.405       .  A
C189       C1052   1.392       .  A
C189        C251   1.482       .  S
C190        C191   1.418       .  A
C190       C1047   1.405   1_455  A
C190       H1053   1.079   1_455  S
C191        C192   1.419       .  A
C192        C193   1.410       .  A
C192        H196   1.080       .  S
C193        C194   1.397       .  A
C193        C245   1.483       .  S
C194       C1047   1.392   1_455  A
C194        H197   1.085       .  S
H195       C1048   1.079       .  S
C198        C199   1.433       .  A
C198        C203   1.439       .  A
C198        C304   1.512       .  S
C199        C200   1.445       .  A
C199        C261   1.540       .  S
C200        C201   1.442       .  A
C200        C284   1.512       .  S
C201        C202   1.440       .  A
C201        C291   1.523       .  S
C202        C203   1.430       .  A
C202        C254   1.532       .  S
C203        C274   1.507       .  S
O204        C220   1.272       .  A
O204      Zn1068   2.004   1_455  S
C205        O221   1.269       .  A
C205        O218   1.276       .  A
O206        C219   1.271       .  A
O206       Cd213   2.057   1_554  S
O207        C225   1.278       .  A
O207       Cd645   2.076       .  S
O208        C222   1.276       .  A
O208       Cd641   2.072   1_545  S
O209        C220   1.276       .  A
O209       Cd212   2.082   1_554  S
Zn210       O223   2.002       .  S
Zn210      O1062   2.003       .  S
Zn210       O650   1.979       .  S
Zn210       O215   1.928       .  S
O211        C222   1.277       .  A
O211      Cd1074   2.087   1_455  S
Cd212       O214   2.071       .  S
Cd212       O637   2.072       .  S
Cd212      O1073   1.999   1_456  S
Cd213       O217   2.043       .  S
Cd213       O226   2.038       .  S
Cd213       O215   1.994   1_556  S
O214       C1082   1.275   1_455  A
O215      Cd1070   1.999   1_554  S
O215       Cd645   1.992   1_554  S
Cd216       O218   2.074   1_556  S
Cd216       O636   2.076   1_545  S
Cd216      O1069   2.087       .  S
Cd216       O644   1.992   1_546  S
O217        C224   1.273       .  A
C219        O223   1.271       .  A
O221       Zn639   1.980   1_545  S
C224       C1031   1.478       .  S
C224       O1072   1.275       .  A
C225        O226   1.268       .  A
O227        C243   1.267       .  A
O227       Zn233   1.975       .  S
C228        O244   1.268       .  A
C228        O241   1.276       .  A
O229        C242   1.277       .  A
O229       Cd236   2.091       .  S
O230        C248   1.277       .  A
O230       Cd239   2.079       .  S
O231        C245   1.274       .  A
O231       Cd235   2.072       .  S
O232        C243   1.272       .  A
O232       Cd235   2.061       .  S
Zn233       O244   1.971       .  S
Zn233       O246   1.988       .  S
Zn233       O238   1.923       .  S
O234        C245   1.279       .  A
O234       Cd239   2.074       .  S
Cd235       O237   2.058       .  S
Cd235       O238   2.005       .  S
Cd236       O240   2.084       .  S
Cd236       O249   2.078       .  S
Cd236       O238   1.995       .  S
O237        C247   1.273       .  A
O238       Cd239   2.006       .  S
Cd239       O241   2.107       .  S
O240        C247   1.277       .  A
C242        O246   1.268       .  A
C248        O249   1.279       .  A
C250        C251   1.403       .  A
C250        C255   1.410       .  A
C250       Br257   1.930       .  S
C251        C252   1.404       .  A
C252        C253   1.411       .  A
C252       Br259   1.945       .  S
C253        C254   1.434       .  A
C253       Br258   1.921       .  S
C254        C255   1.424       .  A
C255       Br256   1.929       .  S
C260        C261   1.417       .  A
C260        C265   1.405       .  A
C260       Br267   1.919       .  S
C261        C262   1.430       .  A
C262        C263   1.410       .  A
C262       Br269   1.916       .  S
C263        C264   1.415       .  A
C263       Br268   1.935       .  S
C264        C265   1.419       .  A
C265       Br266   1.932       .  S
C270        C271   1.411       .  A
C270        C275   1.406       .  A
C270       Br277   1.940       .  S
C271        C272   1.416       .  A
C272        C273   1.407       .  A
C272       Br279   1.939       .  S
C273        C274   1.418       .  A
C273       Br278   1.939       .  S
C274        C275   1.421       .  A
C275       Br276   1.923       .  S
C280        C285   1.403       .  A
C280        C710   1.402   1_545  A
C280       Br287   1.932   1_545  S
C281        C282   1.403       .  A
C281        C709   1.402       .  A
C282        C712   1.407       .  A
C282       Br289   1.937       .  S
C283        C284   1.428       .  A
C283        C711   1.407   1_545  A
C283       Br288   1.926       .  S
C284        C285   1.421       .  A
C285       Br286   1.931       .  S
C290        C291   1.427       .  A
C290        C724   1.406   1_545  A
C290       Br297   1.916       .  S
C291        C292   1.416       .  A
C292        C293   1.394       .  A
C292       Br299   1.921       .  S
C293        C723   1.411   1_545  A
C293       Br298   1.934       .  S
C294        C295   1.411       .  A
C294        C722   1.411       .  A
C295        C719   1.406       .  A
C295       Br296   1.934       .  S
C300        C301   1.407       .  A
C300        C305   1.410       .  A
C300       Br307   1.938       .  S
C301        C302   1.403       .  A
C302        C303   1.406       .  A
C302       Br309   1.930       .  S
C303        C304   1.421       .  A
C303       Br308   1.934       .  S
C304        C305   1.424       .  A
C305       Br306   1.924       .  S
C310        C311   1.421       .  A
C310        C315   1.414       .  A
C310      Br1175   1.933       .  S
C311        C312   1.426       .  A
C311        C570   1.526       .  S
C312        C313   1.411       .  A
C312       Br748   1.910       .  S
C313        C314   1.409       .  A
C313       Br318   1.946       .  S
C314        C315   1.411       .  A
C315      Br1174   1.932       .  S
Br316      C1173   1.932       .  S
Br317      C1168   1.933       .  S
Br319       C741   1.910       .  S
C320        C325   1.403       .  A
C320       C1179   1.416   1_455  A
C320       Br327   1.930       .  S
C321        C322   1.414       .  A
C321       C1178   1.417       .  A
C321        C978   1.508       .  S
C322        C323   1.409       .  A
C322       Br329   1.935       .  S
C323        C324   1.427       .  A
C323       Br328   1.913       .  S
C324       C1183   1.415       .  A
C325       C1182   1.415   1_455  A
C325       Br326   1.919       .  S
C330        C331   1.406       .  A
C330        C335   1.408       .  A
C330       Br337   1.933       .  S
C331        C332   1.408       .  A
C332        C333   1.405       .  A
C332       Br339   1.940       .  S
C333        C334   1.419       .  A
C333       Br338   1.917       .  S
C334        C335   1.421       .  A
C335       Br336   1.932       .  S
C340        C341   1.416       .  A
C340        C345   1.405       .  A
C340       Br776   1.938       .  S
C341        C342   1.418       .  A
C342        C343   1.403       .  A
C342       Br349   1.917       .  S
C343        C344   1.409       .  A
C343       Br348   1.938       .  S
C344        C345   1.414       .  A
C345       Br346   1.939       .  S
Br347       C769   1.938       .  S
C350        C351   1.435       .  A
C350        C355   1.409       .  A
C350       Br786   1.911       .  S
C351        C352   1.426       .  A
C352        C353   1.418       .  A
C352       Br359   1.928       .  S
C353        C354   1.406       .  A
C353       Br358   1.929       .  S
C354        C355   1.401       .  A
C355       Br785   1.948       .  S
Br356       C784   1.948   1_545  S
Br357       C779   1.911   1_545  S
C360        C361   1.417       .  A
C360        C365   1.417       .  A
C360       Br367   1.933       .  S
C361        C362   1.407       .  A
C362        C363   1.405       .  A
C362       Br369   1.937       .  S
C363        C364   1.423       .  A
C363       Br368   1.911       .  S
C364        C365   1.422       .  A
C365       Br366   1.930       .  S
C370        C371   1.405       .  A
C370        C375   1.402       .  A
C370       Br377   1.942       .  S
C371        C372   1.413       .  A
C372        C373   1.418       .  A
C372       Br379   1.930       .  S
C373        C374   1.423       .  A
C373       Br378   1.930       .  S
C374        C375   1.421       .  A
C375       Br376   1.905       .  S
C380        C381   1.406   1_455  A
C380        C385   1.404       .  A
C380      Br1245   1.938   1_455  S
C381        C382   1.413   1_655  A
C381        C895   1.494       .  S
C382        C383   1.413       .  A
C382       Br389   1.932       .  S
C383        C384   1.418       .  A
C383       Br388   1.925       .  S
C384        C385   1.421       .  A
C385       Br386   1.908       .  S
Br387      C1238   1.938       .  S
C390        C391   1.412       .  A
C390        C395   1.412       .  A
C390       Br397   1.933       .  S
C391        C392   1.407       .  A
C392        C393   1.401       .  A
C392       Br399   1.940       .  S
C393        C394   1.418       .  A
C393       Br398   1.909       .  S
C394        C395   1.419       .  A
C395       Br396   1.929       .  S
C400        C401   1.412       .  A
C400        C405   1.412       .  A
C400      Br1265   1.934       .  S
C401        C402   1.407       .  A
C401        C877   1.488   1_455  S
C402        C403   1.401       .  A
C402       Br409   1.943   1_455  S
C403        C404   1.419       .  A
C403       Br408   1.905       .  S
C404        C405   1.420       .  A
C405       Br406   1.930       .  S
Br407      C1258   1.934       .  S
C410        C411   1.404       .  A
C410        C415   1.399       .  A
C410       Br417   1.941       .  S
C411        C412   1.411       .  A
C412        C413   1.413       .  A
C412       Br419   1.932       .  S
C413        C414   1.421       .  A
C413       Br418   1.931       .  S
C414        C415   1.420       .  A
C415       Br416   1.906       .  S
C420        C421   1.420       .  A
C420        C425   1.414       .  A
C420       Br427   1.923       .  S
C421        C422   1.424       .  A
C422        C423   1.404       .  A
C422       Br429   1.908       .  S
C423        C424   1.406       .  A
C423       Br428   1.939       .  S
C424        C425   1.410       .  A
C425       Br426   1.930       .  S
C430        C431   1.398       .  A
C430        C435   1.409   1_565  A
C430        C853   1.494       .  S
C431        C432   1.395       .  A
C431        H436   1.085       .  S
C432        C649   1.466       .  S
C433        C434   1.416       .  A
C433        H437   1.073       .  S
C434        C441   1.524       .  S
C435        H438   1.073       .  S
C439        C440   1.409       .  A
C439        C444   1.394       .  A
C439        C840   1.487       .  S
C440        C441   1.418       .  A
C440        H445   1.073       .  S
C441        C442   1.414       .  A
C442        C443   1.407       .  A
C442        H446   1.071       .  S
C443        C444   1.396       .  A
C443        C511   1.476       .  S
C444        H447   1.085       .  S
C448        C449   1.409       .  A
C448        C453   1.394       .  A
C448       C1688   1.488       .  S
C449        C450   1.419       .  A
C449        H454   1.076       .  S
C450        C451   1.415       .  A
C450        C459   1.520       .  S
C451        C452   1.400       .  A
C451        H455   1.076       .  S
C452        C453   1.389       .  A
C452        C634   1.457       .  S
C453       H1314   1.084       .  S
H456       C1311   1.085   1_455  S
C457        C458   1.405       .  A
C457        C820   1.489       .  S
C458        H463   1.075       .  S
C459        C460   1.415       .  A
C460        C461   1.407       .  A
C460        H464   1.075       .  S
C461        C462   1.399       .  A
C461        C510   1.478       .  S
C466        C467   1.394       .  A
C466        C471   1.406       .  A
C466       C1668   1.494       .  S
C467        C468   1.401       .  A
C467        H472   1.084       .  S
C468        C469   1.408       .  A
C468        C508   1.479       .  S
C469        C470   1.415       .  A
C469        H473   1.079       .  S
C470        C471   1.419       .  A
C470        C479   1.516       .  S
C471        H474   1.076       .  S
C475        C476   1.399       .  A
C475        C480   1.415       .  A
C475        C800   1.495       .  S
C476        C477   1.395       .  A
C476        H481   1.084       .  S
C477        C478   1.396       .  A
C477        C648   1.460       .  S
C478        C479   1.411       .  A
C478        H482   1.077       .  S
C479        C480   1.421       .  A
C480        H483   1.079       .  S
C484        C485   1.439       .  A
C484        C489   1.443       .  A
C484        C850   1.525       .  S
C485        C486   1.437       .  A
C485        C813   1.521       .  S
C486        C487   1.436       .  A
C486        C833   1.515       .  S
C487        C488   1.434       .  A
C487        C843   1.516       .  S
C488        C489   1.439       .  A
C488        C803   1.525       .  S
C489        C823   1.513       .  S
O490        C506   1.274       .  A
O490       Zn496   2.019       .  S
C491        C542   1.465       .  S
C491        O507   1.273       .  A
C491        O504   1.275       .  A
O492        C505   1.272       .  A
O492       Cd499   2.058       .  S
O493        C511   1.275       .  A
O493       Cd502   2.066       .  S
O494        C508   1.273       .  A
O494       Cd498   2.052       .  S
O495        C506   1.273       .  A
O495       Cd498   2.057       .  S
Zn496       O507   2.013       .  S
Zn496       O509   2.026       .  S
Zn496       O501   1.939       .  S
O497        C508   1.274       .  A
O497       Cd502   2.075       .  S
Cd498       O500   2.061       .  S
Cd498       O501   1.988       .  S
Cd499       O503   2.057       .  S
Cd499       O512   2.042       .  S
Cd499       O501   1.988       .  S
O500        C510   1.273       .  A
O501       Cd502   2.001       .  S
Cd502       O504   2.070       .  S
O503        C510   1.273       .  A
C505        C524   1.467       .  S
C505        O509   1.275       .  A
C506        C562   1.461       .  S
C511        O512   1.271       .  A
C513        C514   1.399       .  A
C513        C518   1.414       .  A
C513        C790   1.506       .  S
C514        C515   1.397       .  A
C514        H519   1.084       .  S
C515        C516   1.403       .  A
C515        C671   1.467       .  S
C516        C517   1.416       .  A
C516        H520   1.077       .  S
C517        C518   1.423       .  A
C517        C526   1.525       .  S
C518        H521   1.075       .  S
C522        C527   1.413       .  A
C522        C783   1.492       .  S
C523        C524   1.396       .  A
C523        H528   1.085       .  S
C525        C526   1.416       .  A
C526        C527   1.425       .  A
C527        H530   1.077       .  S
C531        C532   1.408       .  A
C531        C536   1.392       .  A
C531        C773   1.486       .  S
C532        C533   1.417       .  A
C532        H537   1.076       .  S
C533        C534   1.416       .  A
C533        C544   1.513       .  S
C534        C535   1.398       .  A
C534        H538   1.079       .  S
C535        C536   1.385       .  A
C535        C672   1.452       .  S
C536        H539   1.085       .  S
C540        C541   1.395       .  A
C540        C545   1.402       .  A
C540        C760   1.480       .  S
C541        C542   1.393       .  A
C541        H546   1.085       .  S
C542        C543   1.403       .  A
C543        C544   1.417       .  A
C543        H547   1.078       .  S
C544        C545   1.416       .  A
C545        H548   1.078       .  S
C549       C1408   1.416   1_455  A
C549        C554   1.410       .  A
C549       C1608   1.508   1_455  S
C550       C1407   1.416       .  A
C550        C551   1.413       .  A
C550        H555   1.081       .  S
C551       C1410   1.405       .  A
C551        C560   1.506       .  S
C552       C1409   1.405       .  A
C552        C553   1.400       .  A
C552        H556   1.080       .  S
C553        C554   1.399       .  A
C553        C657   1.470       .  S
C554        H557   1.081       .  S
C558        C559   1.412       .  A
C558        C563   1.399       .  A
C558        C743   1.495       .  S
C559        C560   1.419       .  A
C559       H1422   1.081       .  S
C560        C561   1.410       .  A
C561        C562   1.399       .  A
C561        H565   1.081       .  S
C562        C563   1.394       .  A
C563        H566   1.085       .  S
H564       C1417   1.081   1_455  S
C567        C568   1.444       .  A
C567       C1430   1.442       .  A
C567        C753   1.531       .  S
C568        C569   1.441       .  A
C568        C763   1.506       .  S
C569        C570   1.432   1_565  A
C569        C793   1.529       .  S
C570       C1000   1.441       .  A
C571        C999   1.441   1_455  A
C571        C770   1.500       .  S
C572       C1425   1.442   1_455  A
C572        C780   1.539       .  S
C573        C574   1.399       .  A
C573        C578   1.402       .  A
C573        C730   1.481       .  S
C574        C575   1.402       .  A
C574        H579   1.084       .  S
C575        C576   1.404       .  A
C575        C676   1.484       .  S
C576        C577   1.414       .  A
C576        H580   1.080       .  S
C577        C578   1.412       .  A
C577        C584   1.502       .  S
C578        H581   1.081       .  S
C582        C583   1.408       .  A
C582        C587   1.399       .  A
C582        C723   1.491       .  S
C583        C584   1.412       .  A
C583        H588   1.081       .  S
C584        C585   1.412       .  A
C585        C586   1.404       .  A
C585        H589   1.080       .  S
C586        C587   1.390       .  A
C586        C654   1.473       .  S
C587        H590   1.082       .  S
C591        C592   1.393       .  A
C591        C596   1.398       .  A
C591        C710   1.474       .  S
C592        C593   1.398       .  A
C592        H597   1.085       .  S
C593        C594   1.410       .  A
C593        C677   1.487       .  S
C594        C595   1.422       .  A
C594        H598   1.076       .  S
C595        C596   1.416       .  A
C595        C604   1.517       .  S
C596        H599   1.067       .  S
C600        C601   1.394       .  A
C600       C1463   1.407       .  A
C600        C700   1.492       .  S
C601       C1460   1.397       .  A
C601        H606   1.084       .  S
C602       C1459   1.397   1_455  A
C602        C603   1.404       .  A
C602       C1511   1.478   1_455  S
C603        C604   1.419       .  A
C603        H607   1.066       .  S
C604        C605   1.415       .  A
C605       C1458   1.407   1_455  A
C605        H608   1.077       .  S
C609        C610   1.408       .  A
C609        C614   1.418       .  A
C609        C693   1.515       .  S
C610        C611   1.402       .  A
C610        H615   1.080       .  S
C611        C612   1.403       .  A
C611        C651   1.487       .  S
C612        C613   1.412       .  A
C612        H616   1.079       .  S
C613        C614   1.416       .  A
C613        C620   1.513       .  S
C614        H617   1.080       .  S
C618       C1477   1.405       .  A
C618       C1481   1.392       .  A
C618        C680   1.482       .  S
C619       C1476   1.405   1_455  A
C619        C620   1.418       .  A
C619       H1482   1.079   1_455  S
C620        C621   1.419       .  A
C621        C622   1.410       .  A
C621        H625   1.080       .  S
C622        C623   1.397       .  A
C622        C674   1.483       .  S
C623       C1476   1.392   1_455  A
C623        H626   1.085       .  S
H624       C1477   1.079       .  S
C627        C628   1.433       .  A
C627        C632   1.439       .  A
C627        C733   1.512       .  S
C628        C629   1.445       .  A
C628        C690   1.540       .  S
C629        C630   1.442       .  A
C629        C713   1.512       .  S
C630        C631   1.440       .  A
C630        C720   1.523       .  S
C631        C632   1.430       .  A
C631        C683   1.532       .  S
C632        C703   1.507       .  S
O633        C649   1.272       .  A
O633      Zn1497   2.004   1_455  S
C634        O650   1.269       .  A
C634        O647   1.276       .  A
O635        C648   1.271       .  A
O635       Cd642   2.057   1_554  S
O636        C654   1.278       .  A
O637        C651   1.276       .  A
O638        C649   1.276       .  A
O638       Cd641   2.082   1_554  S
Zn639      O1491   2.004       .  S
Zn639       O652   2.002       .  S
Zn639       O644   1.928       .  S
O640        C651   1.277       .  A
O640      Cd1503   2.087   1_455  S
Cd641       O643   2.071       .  S
Cd641      O1502   1.999   1_456  S
Cd642       O646   2.043       .  S
Cd642       O655   2.038       .  S
Cd642       O644   1.994   1_556  S
O643       C1511   1.275   1_455  A
O644      Cd1499   1.999   1_554  S
Cd645      O1498   2.087       .  S
Cd645       O647   2.073   1_556  S
O646        C653   1.273       .  A
C648        O652   1.271       .  A
C653       C1460   1.478       .  S
C653       O1501   1.275       .  A
C654        O655   1.268       .  A
O656        C672   1.267       .  A
O656       Zn662   1.975       .  S
C657        O673   1.268       .  A
C657        O670   1.276       .  A
O658        C671   1.277       .  A
O658       Cd665   2.091       .  S
O659        C677   1.277       .  A
O659       Cd668   2.079       .  S
O660        C674   1.274       .  A
O660       Cd664   2.073       .  S
O661        C672   1.272       .  A
O661       Cd664   2.062       .  S
Zn662       O673   1.971       .  S
Zn662       O675   1.988       .  S
Zn662       O667   1.923       .  S
O663        C674   1.279       .  A
O663       Cd668   2.074       .  S
Cd664       O666   2.058       .  S
Cd664       O667   2.005       .  S
Cd665       O669   2.084       .  S
Cd665       O678   2.078       .  S
Cd665       O667   1.995       .  S
O666        C676   1.274       .  A
O667       Cd668   2.006       .  S
Cd668       O670   2.106       .  S
O669        C676   1.277       .  A
C671        O675   1.268       .  A
C677        O678   1.279       .  A
C679        C680   1.403       .  A
C679        C684   1.410       .  A
C679       Br686   1.930       .  S
C680        C681   1.403       .  A
C681        C682   1.411       .  A
C681       Br688   1.945       .  S
C682        C683   1.434       .  A
C682       Br687   1.921       .  S
C683        C684   1.424       .  A
C684       Br685   1.929       .  S
C689        C690   1.417       .  A
C689        C694   1.405       .  A
C689       Br696   1.919       .  S
C690        C691   1.430       .  A
C691        C692   1.410       .  A
C691       Br698   1.916       .  S
C692        C693   1.415       .  A
C692       Br697   1.935       .  S
C693        C694   1.419       .  A
C694       Br695   1.932       .  S
C699        C700   1.411       .  A
C699        C704   1.406       .  A
C699       Br706   1.940       .  S
C700        C701   1.416       .  A
C701        C702   1.407       .  A
C701       Br708   1.939       .  S
C702        C703   1.418       .  A
C702       Br707   1.939       .  S
C703        C704   1.421       .  A
C704       Br705   1.923       .  S
C709        C714   1.403       .  A
C709       Br716   1.932       .  S
C710        C711   1.403       .  A
C711       Br718   1.937       .  S
C712        C713   1.428       .  A
C712       Br717   1.926       .  S
C713        C714   1.421       .  A
C714       Br715   1.931       .  S
C719        C720   1.427       .  A
C719       Br726   1.916       .  S
C720        C721   1.416       .  A
C721        C722   1.394       .  A
C721       Br728   1.921       .  S
C722       Br727   1.934       .  S
C723        C724   1.411       .  A
C724       Br725   1.934       .  S
C729        C730   1.407       .  A
C729        C734   1.410       .  A
C729       Br736   1.938       .  S
C730        C731   1.403       .  A
C731        C732   1.406       .  A
C731       Br738   1.930       .  S
C732        C733   1.421       .  A
C732       Br737   1.934       .  S
C733        C734   1.424       .  A
C734       Br735   1.924       .  S
C739        C740   1.421       .  A
C739        C744   1.414       .  A
C739      Br1604   1.933       .  S
C740        C741   1.426       .  A
C741        C742   1.411       .  A
C742        C743   1.409       .  A
C742       Br747   1.946       .  S
C743        C744   1.411       .  A
C744      Br1603   1.932       .  S
Br745      C1602   1.932       .  S
Br746      C1597   1.933       .  S
C749       C1608   1.417   1_455  A
C749        C754   1.403       .  A
C749       Br756   1.930       .  S
C750       C1607   1.417       .  A
C750        C751   1.414       .  A
C750       C1407   1.508       .  S
C751        C752   1.409       .  A
C751       Br758   1.935       .  S
C752        C753   1.427       .  A
C752       Br757   1.913       .  S
C753       C1612   1.415       .  A
C754       C1611   1.415   1_455  A
C754       Br755   1.919       .  S
C759        C760   1.406       .  A
C759        C764   1.408       .  A
C759       Br766   1.933       .  S
C760        C761   1.408       .  A
C761        C762   1.405       .  A
C761       Br768   1.940       .  S
C762        C763   1.419       .  A
C762       Br767   1.917       .  S
C763        C764   1.421       .  A
C764       Br765   1.933       .  S
C769        C770   1.416       .  A
C769        C774   1.405       .  A
C770        C771   1.418       .  A
C771        C772   1.403       .  A
C771       Br778   1.917       .  S
C772        C773   1.409       .  A
C772       Br777   1.938       .  S
C773        C774   1.414       .  A
C774       Br775   1.939       .  S
C779        C780   1.435       .  A
C779        C784   1.409       .  A
C780        C781   1.426       .  A
C781        C782   1.418       .  A
C781       Br788   1.928       .  S
C782        C783   1.406       .  A
C782       Br787   1.929       .  S
C783        C784   1.401       .  A
C789        C790   1.417       .  A
C789        C794   1.417       .  A
C789       Br796   1.933       .  S
C790        C791   1.407       .  A
C791        C792   1.405       .  A
C791       Br798   1.937       .  S
C792        C793   1.423       .  A
C792       Br797   1.911       .  S
C793        C794   1.422       .  A
C794       Br795   1.930       .  S
C799        C800   1.405       .  A
C799        C804   1.402       .  A
C799       Br806   1.942       .  S
C800        C801   1.413       .  A
C801        C802   1.418       .  A
C801       Br808   1.930       .  S
C802        C803   1.423       .  A
C802       Br807   1.930       .  S
C803        C804   1.421       .  A
C804       Br805   1.905       .  S
C809        C810   1.406   1_455  A
C809        C814   1.403       .  A
C809      Br1674   1.938   1_455  S
C810        C811   1.413   1_655  A
C810       C1324   1.494       .  S
C811        C812   1.413       .  A
C811       Br818   1.932       .  S
C812        C813   1.419       .  A
C812       Br817   1.925       .  S
C813        C814   1.421       .  A
C814       Br815   1.908       .  S
Br816      C1667   1.938       .  S
C819        C820   1.412       .  A
C819        C824   1.413       .  A
C819       Br826   1.933       .  S
C820        C821   1.407       .  A
C821        C822   1.401       .  A
C821       Br828   1.940       .  S
C822        C823   1.418       .  A
C822       Br827   1.909       .  S
C823        C824   1.419       .  A
C824       Br825   1.929       .  S
C829        C830   1.412       .  A
C829        C834   1.412       .  A
C829      Br1694   1.934       .  S
C830        C831   1.407       .  A
C830       C1306   1.488   1_455  S
C831        C832   1.401       .  A
C831       Br838   1.943       .  S
C832        C833   1.419       .  A
C832       Br837   1.905       .  S
C833        C834   1.420       .  A
C834       Br835   1.930       .  S
Br836      C1687   1.934       .  S
C839        C840   1.404       .  A
C839        C844   1.399       .  A
C839       Br846   1.941       .  S
C840        C841   1.411       .  A
C841        C842   1.413       .  A
C841       Br848   1.932       .  S
C842        C843   1.421       .  A
C842       Br847   1.931       .  S
C843        C844   1.420       .  A
C844       Br845   1.906       .  S
C849        C850   1.420       .  A
C849        C854   1.414       .  A
C849       Br856   1.924       .  S
C850        C851   1.424       .  A
C851        C852   1.404       .  A
C851       Br858   1.908       .  S
C852        C853   1.406       .  A
C852       Br857   1.940       .  S
C853        C854   1.410       .  A
C854       Br855   1.930       .  S
C859        C860   1.398       .  A
C859        C864   1.409       .  A
C859       C1282   1.494       .  S
C860        C861   1.395       .  A
C860        H865   1.085       .  S
C861       C1291   1.402       .  A
C861       C1078   1.466       .  S
C862       C1290   1.402   1_545  A
C862        C863   1.417       .  A
C862        H866   1.072       .  S
C863       C1293   1.421       .  A
C863        C870   1.524       .  S
C864       C1292   1.421       .  A
C864        H867   1.073       .  S
C868        C869   1.409       .  A
C868        C873   1.394       .  A
C868       C1269   1.487       .  S
C869        C870   1.418       .  A
C869        H874   1.073       .  S
C870        C871   1.414       .  A
C871        C872   1.407       .  A
C871        H875   1.071       .  S
C872        C873   1.396       .  A
C872        C940   1.476       .  S
C873        H876   1.085       .  S
C877        C878   1.409       .  A
C877        C882   1.394       .  A
C878        C879   1.419       .  A
C878        H883   1.076       .  S
C879        C880   1.415       .  A
C879        C888   1.521       .  S
C880        C881   1.400       .  A
C880        H884   1.076       .  S
C881        C882   1.389       .  A
C881       C1063   1.457       .  S
C886        C887   1.405       .  A
C886       C1320   1.396       .  A
C886       C1249   1.489       .  S
C887       C1317   1.416       .  A
C887        H892   1.075       .  S
C888       C1316   1.416   1_545  A
C888        C889   1.415       .  A
C889        C890   1.407       .  A
C889        H893   1.075       .  S
C890        C891   1.399       .  A
C890        C939   1.478       .  S
C891       C1315   1.396   1_545  A
C891       H1323   1.084   1_545  S
H894       C1320   1.084       .  S
C895        C896   1.394       .  A
C895        C900   1.406       .  A
C896        C897   1.400       .  A
C896        H901   1.084       .  S
C897        C898   1.408       .  A
C897        C937   1.479       .  S
C898        C899   1.415       .  A
C898        H902   1.079       .  S
C899        C900   1.419       .  A
C899        C908   1.516       .  S
C900        H903   1.076       .  S
C904        C905   1.399       .  A
C904        C909   1.414       .  A
C904       C1229   1.495       .  S
C905        C906   1.395       .  A
C905        H910   1.084       .  S
C906        C907   1.396       .  A
C906       C1077   1.460       .  S
C907        C908   1.411       .  A
C907        H911   1.077       .  S
C908        C909   1.420       .  A
C909        H912   1.079       .  S
C913        C914   1.439       .  A
C913        C918   1.443       .  A
C913       C1279   1.525       .  S
C914        C915   1.437       .  A
C914       C1242   1.521       .  S
C915        C916   1.436       .  A
C915       C1262   1.515       .  S
C916        C917   1.434       .  A
C916       C1272   1.516       .  S
C917        C918   1.439       .  A
C917       C1232   1.525       .  S
C918       C1252   1.513       .  S
O919        C935   1.274       .  A
O919       Zn925   2.019       .  S
C920        C971   1.465       .  S
C920        O936   1.273       .  A
C920        O933   1.275       .  A
O921        C934   1.272       .  A
O921       Cd928   2.058       .  S
O922        C940   1.275       .  A
O922       Cd931   2.066       .  S
O923        C937   1.273       .  A
O923       Cd927   2.051       .  S
O924        C935   1.273       .  A
O924       Cd927   2.057       .  S
Zn925       O936   2.013       .  S
Zn925       O938   2.026       .  S
Zn925       O930   1.939       .  S
O926        C937   1.274       .  A
O926       Cd931   2.075       .  S
Cd927       O929   2.061       .  S
Cd927       O930   1.988       .  S
Cd928       O932   2.058       .  S
Cd928       O941   2.042       .  S
Cd928       O930   1.988       .  S
O929        C939   1.273       .  A
O930       Cd931   2.001       .  S
Cd931       O933   2.070       .  S
O932        C939   1.273       .  A
C934        C953   1.467       .  S
C934        O938   1.275       .  A
C935        C991   1.461       .  S
C940        O941   1.271       .  A
C942        C943   1.399       .  A
C942        C947   1.414       .  A
C942       C1219   1.506       .  S
C943        C944   1.397       .  A
C943        H948   1.084       .  S
C944        C945   1.403       .  A
C944       C1100   1.467       .  S
C945        C946   1.416       .  A
C945        H949   1.077       .  S
C946        C947   1.423       .  A
C946        C955   1.525       .  S
C947        H950   1.075       .  S
C951       C1381   1.396       .  A
C951        C956   1.413       .  A
C951       C1212   1.492       .  S
C952       C1380   1.396   1_545  A
C952        C953   1.396       .  A
C952        H957   1.085       .  S
C953       C1383   1.401   1_545  A
C954       C1382   1.401       .  A
C954        C955   1.416       .  A
C954       H1387   1.076       .  S
C955        C956   1.425       .  A
C956        H959   1.077       .  S
H958       C1383   1.076   1_545  S
C960        C961   1.408       .  A
C960        C965   1.392       .  A
C960       C1202   1.486       .  S
C961        C962   1.417       .  A
C961        H966   1.076       .  S
C962        C963   1.416       .  A
C962        C973   1.513       .  S
C963        C964   1.398       .  A
C963        H967   1.079       .  S
C964        C965   1.385       .  A
C964       C1101   1.452       .  S
C965        H968   1.085       .  S
C969        C970   1.395       .  A
C969        C974   1.402       .  A
C969       C1189   1.480       .  S
C970        C971   1.393       .  A
C970        H975   1.085       .  S
C971        C972   1.403       .  A
C972        C973   1.417       .  A
C972        H976   1.078       .  S
C973        C974   1.416       .  A
C974        H977   1.078       .  S
C978        C983   1.410       .  A
C979        C980   1.413   1_655  A
C979        H984   1.081       .  S
C980        C989   1.506   1_455  S
C981        C982   1.400       .  A
C981        H985   1.080       .  S
C982        C983   1.399       .  A
C982       C1086   1.470       .  S
C983        H986   1.081       .  S
C987        C988   1.412       .  A
C987        C992   1.399       .  A
C987       C1172   1.495       .  S
C988        C989   1.419       .  A
C989        C990   1.410       .  A
C990        C991   1.399       .  A
C990        H994   1.081       .  S
C991        C992   1.394       .  A
C992        H995   1.085       .  S
C996        C997   1.444       .  A
C996       C1182   1.531       .  S
C997        C998   1.441       .  A
C997       C1192   1.506       .  S
C998        C999   1.432       .  A
C998       C1222   1.529       .  S
C999       C1598   1.526       .  S
C1000      C1430   1.438   1_545  A
C1000      C1199   1.500       .  S
C1001      C1429   1.438       .  A
C1001      C1209   1.539       .  S
C1002      C1003   1.399       .  A
C1002      C1007   1.402       .  A
C1002      C1159   1.481       .  S
C1003      C1004   1.402       .  A
C1003      H1008   1.084       .  S
C1004      C1005   1.404       .  A
C1004      C1105   1.484       .  S
C1005      C1006   1.414       .  A
C1005      H1009   1.080       .  S
C1006      C1007   1.411       .  A
C1006      C1013   1.502       .  S
C1007      H1010   1.081       .  S
C1011      C1012   1.408       .  A
C1011      C1016   1.399       .  A
C1011      C1152   1.491       .  S
C1012      C1013   1.412       .  A
C1012      H1017   1.081       .  S
C1013      C1014   1.412       .  A
C1014      C1015   1.404       .  A
C1014      H1018   1.080       .  S
C1015      C1016   1.390       .  A
C1015      C1083   1.473       .  S
C1016      H1019   1.082       .  S
C1020      C1021   1.393       .  A
C1020      C1025   1.398       .  A
C1020      C1139   1.474       .  S
C1021      C1022   1.398       .  A
C1021      H1026   1.085       .  S
C1022      C1023   1.410       .  A
C1022      C1106   1.487       .  S
C1023      C1024   1.422       .  A
C1023      H1027   1.076       .  S
C1024      C1025   1.416       .  A
C1024      C1033   1.517       .  S
C1025      H1028   1.066       .  S
C1029      C1030   1.394       .  A
C1029      C1129   1.492       .  S
C1030      H1035   1.084       .  S
C1031      C1032   1.404       .  A
C1032      C1033   1.419       .  A
C1032      H1036   1.065       .  S
C1033      C1034   1.415       .  A
C1034      H1037   1.077       .  S
C1038      C1039   1.408       .  A
C1038      C1043   1.418       .  A
C1038      C1122   1.515       .  S
C1039      C1040   1.402       .  A
C1039      H1044   1.080       .  S
C1040      C1041   1.403       .  A
C1040      C1080   1.487       .  S
C1041      C1042   1.412       .  A
C1041      H1045   1.079       .  S
C1042      C1043   1.416       .  A
C1042      C1049   1.513       .  S
C1043      H1046   1.080       .  S
C1047      C1109   1.482       .  S
C1048      C1049   1.418       .  A
C1049      C1050   1.419       .  A
C1050      C1051   1.410       .  A
C1050      H1054   1.080       .  S
C1051      C1052   1.397       .  A
C1051      C1103   1.483       .  S
C1052      H1055   1.085       .  S
C1056      C1057   1.433       .  A
C1056      C1061   1.440       .  A
C1056      C1162   1.512       .  S
C1057      C1058   1.445       .  A
C1057      C1119   1.540       .  S
C1058      C1059   1.442       .  A
C1058      C1142   1.512       .  S
C1059      C1060   1.440       .  A
C1059      C1149   1.523       .  S
C1060      C1061   1.430       .  A
C1060      C1112   1.532       .  S
C1061      C1132   1.507       .  S
O1062      C1078   1.272       .  A
C1063      O1079   1.269       .  A
C1063      O1076   1.276       .  A
O1064      C1077   1.271       .  A
O1064     Cd1071   2.057   1_554  S
O1065      C1083   1.278       .  A
O1065     Cd1503   2.076       .  S
O1066      C1080   1.276       .  A
O1066     Cd1499   2.072   1_545  S
O1067      C1078   1.276       .  A
O1067     Cd1070   2.082   1_554  S
Zn1068     O1508   1.979       .  S
Zn1068     O1081   2.002       .  S
Zn1068     O1073   1.928       .  S
O1069      C1080   1.277       .  A
Cd1070     O1495   2.072       .  S
Cd1070     O1072   2.071       .  S
Cd1071     O1075   2.043       .  S
Cd1071     O1084   2.038       .  S
Cd1071     O1073   1.994   1_556  S
O1073     Cd1503   1.992   1_554  S
Cd1074     O1494   2.076   1_545  S
Cd1074     O1076   2.073   1_556  S
Cd1074     O1502   1.992   1_546  S
O1075      C1082   1.273       .  A
C1077      O1081   1.271       .  A
O1079     Zn1497   1.979   1_545  S
C1083      O1084   1.268       .  A
O1085      C1101   1.267       .  A
O1085     Zn1091   1.975       .  S
C1086      O1102   1.268       .  A
C1086      O1099   1.276       .  A
O1087      C1100   1.277       .  A
O1087     Cd1094   2.091       .  S
O1088      C1106   1.277       .  A
O1088     Cd1097   2.079       .  S
O1089      C1103   1.274       .  A
O1089     Cd1093   2.073       .  S
O1090      C1101   1.272       .  A
O1090     Cd1093   2.062       .  S
Zn1091     O1102   1.971       .  S
Zn1091     O1104   1.988       .  S
Zn1091     O1096   1.923       .  S
O1092      C1103   1.279       .  A
O1092     Cd1097   2.074       .  S
Cd1093     O1095   2.058       .  S
Cd1093     O1096   2.005       .  S
Cd1094     O1098   2.084       .  S
Cd1094     O1107   2.078       .  S
Cd1094     O1096   1.995       .  S
O1095      C1105   1.274       .  A
O1096     Cd1097   2.006       .  S
Cd1097     O1099   2.106       .  S
O1098      C1105   1.277       .  A
C1100      O1104   1.268       .  A
C1106      O1107   1.279       .  A
C1108      C1109   1.403       .  A
C1108      C1113   1.410       .  A
C1108     Br1115   1.930       .  S
C1109      C1110   1.403       .  A
C1110      C1111   1.411       .  A
C1110     Br1117   1.945   1_655  S
C1111      C1112   1.434       .  A
C1111     Br1116   1.921       .  S
C1112      C1113   1.424       .  A
C1113     Br1114   1.929       .  S
C1118      C1119   1.417       .  A
C1118      C1123   1.405       .  A
C1118     Br1125   1.919       .  S
C1119      C1120   1.430       .  A
C1120      C1121   1.410       .  A
C1120     Br1127   1.916       .  S
C1121      C1122   1.415       .  A
C1121     Br1126   1.935       .  S
C1122      C1123   1.419       .  A
C1123     Br1124   1.932       .  S
C1128      C1129   1.411       .  A
C1128      C1133   1.406       .  A
C1128     Br1135   1.940       .  S
C1129      C1130   1.416       .  A
C1130      C1131   1.407       .  A
C1130     Br1137   1.939       .  S
C1131      C1132   1.418       .  A
C1131     Br1136   1.939       .  S
C1132      C1133   1.421       .  A
C1133     Br1134   1.923       .  S
C1138      C1568   1.402   1_545  A
C1138      C1143   1.403       .  A
C1138     Br1145   1.932   1_545  S
C1139      C1567   1.402       .  A
C1139      C1140   1.403       .  A
C1140      C1570   1.407       .  A
C1140     Br1147   1.937       .  S
C1141      C1569   1.407   1_545  A
C1141      C1142   1.428       .  A
C1141     Br1146   1.926       .  S
C1142      C1143   1.421       .  A
C1143     Br1144   1.931       .  S
C1148      C1149   1.427       .  A
C1148      C1582   1.406   1_545  A
C1148     Br1155   1.915       .  S
C1149      C1150   1.416       .  A
C1150      C1151   1.394       .  A
C1150     Br1157   1.921       .  S
C1151      C1581   1.411   1_545  A
C1151     Br1156   1.934       .  S
C1152      C1580   1.411       .  A
C1152      C1153   1.411       .  A
C1153      C1577   1.406       .  A
C1153     Br1154   1.934       .  S
C1158      C1159   1.407       .  A
C1158      C1163   1.410       .  A
C1158     Br1165   1.938       .  S
C1159      C1160   1.403       .  A
C1160      C1161   1.406       .  A
C1160     Br1167   1.930       .  S
C1161      C1162   1.421       .  A
C1161     Br1166   1.934       .  S
C1162      C1163   1.424       .  A
C1163     Br1164   1.924       .  S
C1168      C1169   1.421       .  A
C1168      C1173   1.414       .  A
C1169      C1170   1.426       .  A
C1169      C1428   1.526       .  S
C1170      C1171   1.411       .  A
C1170     Br1606   1.910       .  S
C1171      C1172   1.409       .  A
C1171     Br1176   1.946       .  S
C1172      C1173   1.411       .  A
Br1177     C1599   1.910       .  S
C1178      C1183   1.403       .  A
C1178     Br1185   1.930       .  S
C1179      C1180   1.414       .  A
C1180      C1181   1.409       .  A
C1180     Br1187   1.935       .  S
C1181      C1182   1.427       .  A
C1181     Br1186   1.913       .  S
C1183     Br1184   1.919       .  S
C1188      C1189   1.406       .  A
C1188      C1193   1.408       .  A
C1188     Br1195   1.933       .  S
C1189      C1190   1.408       .  A
C1190      C1191   1.405       .  A
C1190     Br1197   1.940       .  S
C1191      C1192   1.419       .  A
C1191     Br1196   1.917       .  S
C1192      C1193   1.421       .  A
C1193     Br1194   1.933       .  S
C1198      C1199   1.416       .  A
C1198      C1203   1.405       .  A
C1198     Br1634   1.938       .  S
C1199      C1200   1.418       .  A
C1200      C1201   1.403       .  A
C1200     Br1207   1.917       .  S
C1201      C1202   1.409       .  A
C1201     Br1206   1.938       .  S
C1202      C1203   1.414       .  A
C1203     Br1204   1.939       .  S
Br1205     C1627   1.938       .  S
C1208      C1209   1.435       .  A
C1208      C1213   1.409       .  A
C1208     Br1644   1.911       .  S
C1209      C1210   1.426       .  A
C1210      C1211   1.418       .  A
C1210     Br1217   1.928       .  S
C1211      C1212   1.406       .  A
C1211     Br1216   1.929       .  S
C1212      C1213   1.401       .  A
C1213     Br1643   1.948       .  S
Br1214     C1642   1.948   1_545  S
Br1215     C1637   1.911   1_545  S
C1218      C1219   1.417       .  A
C1218      C1223   1.417       .  A
C1218     Br1225   1.933       .  S
C1219      C1220   1.407       .  A
C1220      C1221   1.405       .  A
C1220     Br1227   1.937       .  S
C1221      C1222   1.423       .  A
C1221     Br1226   1.911       .  S
C1222      C1223   1.422       .  A
C1223     Br1224   1.930       .  S
C1228      C1229   1.405       .  A
C1228      C1233   1.402       .  A
C1228     Br1235   1.942       .  S
C1229      C1230   1.412       .  A
C1230      C1231   1.418       .  A
C1230     Br1237   1.930       .  S
C1231      C1232   1.423       .  A
C1231     Br1236   1.930       .  S
C1232      C1233   1.421       .  A
C1233     Br1234   1.905       .  S
C1238      C1239   1.406       .  A
C1238      C1243   1.403       .  A
C1239      C1240   1.413       .  A
C1240      C1241   1.413       .  A
C1240     Br1247   1.932       .  S
C1241      C1242   1.419       .  A
C1241     Br1246   1.925       .  S
C1242      C1243   1.421       .  A
C1243     Br1244   1.908       .  S
C1248      C1249   1.412       .  A
C1248      C1253   1.413       .  A
C1248     Br1255   1.933       .  S
C1249      C1250   1.407       .  A
C1250      C1251   1.401       .  A
C1250     Br1257   1.940       .  S
C1251      C1252   1.418       .  A
C1251     Br1256   1.909       .  S
C1252      C1253   1.419       .  A
C1253     Br1254   1.929       .  S
C1258      C1259   1.412       .  A
C1258      C1263   1.412       .  A
C1259      C1260   1.407       .  A
C1260      C1261   1.401       .  A
C1260     Br1267   1.943       .  S
C1261      C1262   1.419       .  A
C1261     Br1266   1.905       .  S
C1262      C1263   1.420       .  A
C1263     Br1264   1.930       .  S
C1268      C1269   1.404       .  A
C1268      C1273   1.399       .  A
C1268     Br1275   1.941       .  S
C1269      C1270   1.411       .  A
C1270      C1271   1.413       .  A
C1270     Br1277   1.932       .  S
C1271      C1272   1.421       .  A
C1271     Br1276   1.931       .  S
C1272      C1273   1.420       .  A
C1273     Br1274   1.906       .  S
C1278      C1279   1.420       .  A
C1278      C1283   1.414       .  A
C1278     Br1285   1.924       .  S
C1279      C1280   1.424       .  A
C1280      C1281   1.404       .  A
C1280     Br1287   1.908       .  S
C1281      C1282   1.406       .  A
C1281     Br1286   1.940       .  S
C1282      C1283   1.410       .  A
C1283     Br1284   1.930       .  S
C1288      C1289   1.398       .  A
C1288      C1293   1.409   1_565  A
C1288      C1711   1.494       .  S
C1289      C1290   1.395       .  A
C1289      H1294   1.085       .  S
C1290      C1507   1.466       .  S
C1291      C1292   1.417       .  A
C1291      H1295   1.072       .  S
C1292      C1299   1.524       .  S
C1293      H1296   1.073       .  S
C1297      C1298   1.409       .  A
C1297      C1302   1.394       .  A
C1297      C1698   1.487       .  S
C1298      C1299   1.419       .  A
C1298      H1303   1.072       .  S
C1299      C1300   1.414       .  A
C1300      C1301   1.407       .  A
C1300      H1304   1.071       .  S
C1301      C1302   1.396       .  A
C1301      C1369   1.476       .  S
C1302      H1305   1.085       .  S
C1306      C1307   1.409       .  A
C1306      C1311   1.394       .  A
C1307      C1308   1.419       .  A
C1307      H1312   1.075       .  S
C1308      C1309   1.415       .  A
C1308      C1317   1.521       .  S
C1309      C1310   1.400       .  A
C1309      H1313   1.076       .  S
C1310      C1311   1.389       .  A
C1310      C1492   1.457       .  S
C1315      C1316   1.405       .  A
C1315      C1678   1.489       .  S
C1316      H1321   1.075       .  S
C1317      C1318   1.415       .  A
C1318      C1319   1.407       .  A
C1318      H1322   1.075       .  S
C1319      C1320   1.399       .  A
C1319      C1368   1.478       .  S
C1324      C1325   1.394       .  A
C1324      C1329   1.406       .  A
C1325      C1326   1.401       .  A
C1325      H1330   1.084       .  S
C1326      C1327   1.408       .  A
C1326      C1366   1.479       .  S
C1327      C1328   1.415       .  A
C1327      H1331   1.079       .  S
C1328      C1329   1.419       .  A
C1328      C1337   1.516       .  S
C1329      H1332   1.076       .  S
C1333      C1334   1.399       .  A
C1333      C1338   1.415       .  A
C1333      C1658   1.495       .  S
C1334      C1335   1.395       .  A
C1334      H1339   1.084       .  S
C1335      C1336   1.396       .  A
C1335      C1506   1.460       .  S
C1336      C1337   1.411       .  A
C1336      H1340   1.077       .  S
C1337      C1338   1.420       .  A
C1338      H1341   1.079       .  S
C1342      C1343   1.439       .  A
C1342      C1347   1.443       .  A
C1342      C1708   1.525       .  S
C1343      C1344   1.437       .  A
C1343      C1671   1.520       .  S
C1344      C1345   1.436       .  A
C1344      C1691   1.515       .  S
C1345      C1346   1.434       .  A
C1345      C1701   1.516       .  S
C1346      C1347   1.439       .  A
C1346      C1661   1.525       .  S
C1347      C1681   1.513       .  S
O1348      C1364   1.274       .  A
O1348     Zn1354   2.019       .  S
C1349      C1400   1.465       .  S
C1349      O1365   1.273       .  A
C1349      O1362   1.275       .  A
O1350      C1363   1.272       .  A
O1350     Cd1357   2.057       .  S
O1351      C1369   1.275       .  A
O1351     Cd1360   2.066       .  S
O1352      C1366   1.273       .  A
O1352     Cd1356   2.051       .  S
O1353      C1364   1.273       .  A
O1353     Cd1356   2.057       .  S
Zn1354     O1365   2.013       .  S
Zn1354     O1367   2.026       .  S
Zn1354     O1359   1.939       .  S
O1355      C1366   1.274       .  A
O1355     Cd1360   2.075       .  S
Cd1356     O1358   2.060       .  S
Cd1356     O1359   1.988       .  S
Cd1357     O1361   2.057       .  S
Cd1357     O1370   2.042       .  S
Cd1357     O1359   1.988       .  S
O1358      C1368   1.273       .  A
O1359     Cd1360   2.001       .  S
Cd1360     O1362   2.070       .  S
O1361      C1368   1.273       .  A
C1363      C1382   1.467       .  S
C1363      O1367   1.275       .  A
C1364      C1420   1.461       .  S
C1369      O1370   1.271       .  A
C1371      C1372   1.399       .  A
C1371      C1376   1.414       .  A
C1371      C1648   1.506       .  S
C1372      C1373   1.397       .  A
C1372      H1377   1.084       .  S
C1373      C1374   1.403       .  A
C1373      C1529   1.467       .  S
C1374      C1375   1.416       .  A
C1374      H1378   1.077       .  S
C1375      C1376   1.423       .  A
C1375      C1384   1.525       .  S
C1376      H1379   1.075       .  S
C1380      C1385   1.413       .  A
C1380      C1641   1.492       .  S
C1381      C1382   1.396       .  A
C1381      H1386   1.085       .  S
C1383      C1384   1.416       .  A
C1384      C1385   1.425       .  A
C1385      H1388   1.077       .  S
C1389      C1390   1.408       .  A
C1389      C1394   1.392       .  A
C1389      C1631   1.486       .  S
C1390      C1391   1.417       .  A
C1390      H1395   1.076       .  S
C1391      C1392   1.415       .  A
C1391      C1402   1.513       .  S
C1392      C1393   1.397       .  A
C1392      H1396   1.079       .  S
C1393      C1394   1.385       .  A
C1393      C1530   1.452       .  S
C1394      H1397   1.085       .  S
C1398      C1399   1.395       .  A
C1398      C1403   1.402       .  A
C1398      C1618   1.480       .  S
C1399      C1400   1.393       .  A
C1399      H1404   1.085       .  S
C1400      C1401   1.403       .  A
C1401      C1402   1.417       .  A
C1401      H1405   1.078       .  S
C1402      C1403   1.416       .  A
C1403      H1406   1.078       .  S
C1407      C1412   1.410       .  A
C1408      C1409   1.413   1_655  A
C1408      H1413   1.081       .  S
C1409      C1418   1.506   1_455  S
C1410      C1411   1.400       .  A
C1410      H1414   1.080       .  S
C1411      C1412   1.399       .  A
C1411      C1515   1.470       .  S
C1412      H1415   1.081       .  S
C1416      C1417   1.412       .  A
C1416      C1421   1.399       .  A
C1416      C1601   1.495       .  S
C1417      C1418   1.419       .  A
C1418      C1419   1.410       .  A
C1419      C1420   1.399       .  A
C1419      H1423   1.081       .  S
C1420      C1421   1.393       .  A
C1421      H1424   1.085       .  S
C1425      C1426   1.444       .  A
C1425      C1611   1.530       .  S
C1426      C1427   1.441       .  A
C1426      C1621   1.506       .  S
C1427      C1428   1.432   1_565  A
C1427      C1651   1.529       .  S
C1429      C1628   1.500       .  S
C1430      C1638   1.539       .  S
C1431      C1432   1.399       .  A
C1431      C1436   1.402       .  A
C1431      C1588   1.481       .  S
C1432      C1433   1.402       .  A
C1432      H1437   1.084       .  S
C1433      C1434   1.404       .  A
C1433      C1534   1.484       .  S
C1434      C1435   1.414       .  A
C1434      H1438   1.080       .  S
C1435      C1436   1.411       .  A
C1435      C1442   1.502       .  S
C1436      H1439   1.081       .  S
C1440      C1441   1.408       .  A
C1440      C1445   1.398       .  A
C1440      C1581   1.491       .  S
C1441      C1442   1.412       .  A
C1441      H1446   1.081       .  S
C1442      C1443   1.412       .  A
C1443      C1444   1.404       .  A
C1443      H1447   1.080       .  S
C1444      C1445   1.390       .  A
C1444      C1512   1.473       .  S
C1445      H1448   1.082       .  S
C1449      C1450   1.393       .  A
C1449      C1454   1.398       .  A
C1449      C1568   1.474       .  S
C1450      C1451   1.398       .  A
C1450      H1455   1.085       .  S
C1451      C1452   1.410       .  A
C1451      C1535   1.487       .  S
C1452      C1453   1.422       .  A
C1452      H1456   1.076       .  S
C1453      C1454   1.416       .  A
C1453      C1462   1.517       .  S
C1454      H1457   1.066       .  S
C1458      C1459   1.394       .  A
C1458      C1558   1.492       .  S
C1459      H1464   1.084       .  S
C1460      C1461   1.404       .  A
C1461      C1462   1.419       .  A
C1461      H1465   1.065       .  S
C1462      C1463   1.415       .  A
C1463      H1466   1.077       .  S
C1467      C1468   1.408       .  A
C1467      C1472   1.418       .  A
C1467      C1551   1.515       .  S
C1468      C1469   1.402       .  A
C1468      H1473   1.080       .  S
C1469      C1470   1.403       .  A
C1469      C1509   1.487       .  S
C1470      C1471   1.412       .  A
C1470      H1474   1.079       .  S
C1471      C1472   1.416       .  A
C1471      C1478   1.513       .  S
C1472      H1475   1.080       .  S
C1476      C1538   1.482       .  S
C1477      C1478   1.418       .  A
C1478      C1479   1.419       .  A
C1479      C1480   1.410       .  A
C1479      H1483   1.080       .  S
C1480      C1481   1.397       .  A
C1480      C1532   1.483       .  S
C1481      H1484   1.085       .  S
C1485      C1486   1.433       .  A
C1485      C1490   1.439       .  A
C1485      C1591   1.512       .  S
C1486      C1487   1.445       .  A
C1486      C1548   1.540       .  S
C1487      C1488   1.442       .  A
C1487      C1571   1.512       .  S
C1488      C1489   1.440       .  A
C1488      C1578   1.523       .  S
C1489      C1490   1.430       .  A
C1489      C1541   1.531       .  S
C1490      C1561   1.507       .  S
O1491      C1507   1.272       .  A
C1492      O1508   1.269       .  A
C1492      O1505   1.276       .  A
O1493      C1506   1.271       .  A
O1493     Cd1500   2.057   1_554  S
O1494      C1512   1.278       .  A
O1495      C1509   1.276       .  A
O1496      C1507   1.276       .  A
O1496     Cd1499   2.082   1_554  S
Zn1497     O1510   2.002       .  S
Zn1497     O1502   1.928       .  S
O1498      C1509   1.277       .  A
Cd1499     O1501   2.071       .  S
Cd1500     O1504   2.043       .  S
Cd1500     O1513   2.038       .  S
Cd1500     O1502   1.994   1_556  S
Cd1503     O1505   2.074   1_556  S
O1504      C1511   1.273       .  A
C1506      O1510   1.271       .  A
C1512      O1513   1.268       .  A
O1514      C1530   1.267       .  A
O1514     Zn1520   1.975       .  S
C1515      O1531   1.268       .  A
C1515      O1528   1.276       .  A
O1516      C1529   1.277       .  A
O1516     Cd1523   2.091       .  S
O1517      C1535   1.277       .  A
O1517     Cd1526   2.079       .  S
O1518      C1532   1.274       .  A
O1518     Cd1522   2.072       .  S
O1519      C1530   1.272       .  A
O1519     Cd1522   2.061       .  S
Zn1520     O1531   1.971       .  S
Zn1520     O1533   1.988       .  S
Zn1520     O1525   1.923       .  S
O1521      C1532   1.279       .  A
O1521     Cd1526   2.074       .  S
Cd1522     O1524   2.058       .  S
Cd1522     O1525   2.005       .  S
Cd1523     O1527   2.084       .  S
Cd1523     O1536   2.078       .  S
Cd1523     O1525   1.995       .  S
O1524      C1534   1.273       .  A
O1525     Cd1526   2.006       .  S
Cd1526     O1528   2.107       .  S
O1527      C1534   1.277       .  A
C1529      O1533   1.268       .  A
C1535      O1536   1.279       .  A
C1537      C1538   1.403       .  A
C1537      C1542   1.410       .  A
C1537     Br1544   1.930       .  S
C1538      C1539   1.404       .  A
C1539      C1540   1.411       .  A
C1539     Br1546   1.945   1_655  S
C1540      C1541   1.434       .  A
C1540     Br1545   1.921       .  S
C1541      C1542   1.424       .  A
C1542     Br1543   1.929       .  S
C1547      C1548   1.417       .  A
C1547      C1552   1.405       .  A
C1547     Br1554   1.919       .  S
C1548      C1549   1.430       .  A
C1549      C1550   1.410       .  A
C1549     Br1556   1.916       .  S
C1550      C1551   1.415       .  A
C1550     Br1555   1.935       .  S
C1551      C1552   1.419       .  A
C1552     Br1553   1.932       .  S
C1557      C1558   1.411       .  A
C1557      C1562   1.406       .  A
C1557     Br1564   1.940       .  S
C1558      C1559   1.416       .  A
C1559      C1560   1.407       .  A
C1559     Br1566   1.939       .  S
C1560      C1561   1.418       .  A
C1560     Br1565   1.939       .  S
C1561      C1562   1.421       .  A
C1562     Br1563   1.923       .  S
C1567      C1572   1.403       .  A
C1567     Br1574   1.932       .  S
C1568      C1569   1.403       .  A
C1569     Br1576   1.937       .  S
C1570      C1571   1.428       .  A
C1570     Br1575   1.926       .  S
C1571      C1572   1.421       .  A
C1572     Br1573   1.931       .  S
C1577      C1578   1.427       .  A
C1577     Br1584   1.915       .  S
C1578      C1579   1.416       .  A
C1579      C1580   1.394       .  A
C1579     Br1586   1.921       .  S
C1580     Br1585   1.934       .  S
C1581      C1582   1.411       .  A
C1582     Br1583   1.934       .  S
C1587      C1588   1.407       .  A
C1587      C1592   1.410       .  A
C1587     Br1594   1.938       .  S
C1588      C1589   1.403       .  A
C1589      C1590   1.406       .  A
C1589     Br1596   1.930       .  S
C1590      C1591   1.421       .  A
C1590     Br1595   1.934       .  S
C1591      C1592   1.424       .  A
C1592     Br1593   1.924       .  S
C1597      C1598   1.421       .  A
C1597      C1602   1.414       .  A
C1598      C1599   1.426       .  A
C1599      C1600   1.411       .  A
C1600      C1601   1.409       .  A
C1600     Br1605   1.946       .  S
C1601      C1602   1.411       .  A
C1607      C1612   1.403       .  A
C1607     Br1614   1.930       .  S
C1608      C1609   1.414       .  A
C1609      C1610   1.409       .  A
C1609     Br1616   1.935       .  S
C1610      C1611   1.427       .  A
C1610     Br1615   1.913       .  S
C1612     Br1613   1.919       .  S
C1617      C1618   1.406       .  A
C1617      C1622   1.408       .  A
C1617     Br1624   1.933       .  S
C1618      C1619   1.408       .  A
C1619      C1620   1.405       .  A
C1619     Br1626   1.940       .  S
C1620      C1621   1.419       .  A
C1620     Br1625   1.917       .  S
C1621      C1622   1.421       .  A
C1622     Br1623   1.932       .  S
C1627      C1628   1.416       .  A
C1627      C1632   1.405       .  A
C1628      C1629   1.418       .  A
C1629      C1630   1.403       .  A
C1629     Br1636   1.917       .  S
C1630      C1631   1.409       .  A
C1630     Br1635   1.938       .  S
C1631      C1632   1.414       .  A
C1632     Br1633   1.939       .  S
C1637      C1638   1.435       .  A
C1637      C1642   1.409       .  A
C1638      C1639   1.426       .  A
C1639      C1640   1.418       .  A
C1639     Br1646   1.928       .  S
C1640      C1641   1.406       .  A
C1640     Br1645   1.929       .  S
C1641      C1642   1.401       .  A
C1647      C1648   1.417       .  A
C1647      C1652   1.417       .  A
C1647     Br1654   1.933       .  S
C1648      C1649   1.407       .  A
C1649      C1650   1.405       .  A
C1649     Br1656   1.937       .  S
C1650      C1651   1.423       .  A
C1650     Br1655   1.911       .  S
C1651      C1652   1.422       .  A
C1652     Br1653   1.930       .  S
C1657      C1658   1.405       .  A
C1657      C1662   1.402       .  A
C1657     Br1664   1.942       .  S
C1658      C1659   1.413       .  A
C1659      C1660   1.418       .  A
C1659     Br1666   1.930       .  S
C1660      C1661   1.423       .  A
C1660     Br1665   1.930       .  S
C1661      C1662   1.421       .  A
C1662     Br1663   1.905       .  S
C1667      C1668   1.406       .  A
C1667      C1672   1.404       .  A
C1668      C1669   1.413       .  A
C1669      C1670   1.413       .  A
C1669     Br1676   1.932       .  S
C1670      C1671   1.418       .  A
C1670     Br1675   1.925       .  S
C1671      C1672   1.421       .  A
C1672     Br1673   1.908       .  S
C1677      C1678   1.412       .  A
C1677      C1682   1.412       .  A
C1677     Br1684   1.933       .  S
C1678      C1679   1.407       .  A
C1679      C1680   1.401       .  A
C1679     Br1686   1.940       .  S
C1680      C1681   1.418       .  A
C1680     Br1685   1.909       .  S
C1681      C1682   1.419       .  A
C1682     Br1683   1.929       .  S
C1687      C1688   1.412       .  A
C1687      C1692   1.412       .  A
C1688      C1689   1.407       .  A
C1689      C1690   1.401       .  A
C1689     Br1696   1.943       .  S
C1690      C1691   1.419       .  A
C1690     Br1695   1.905       .  S
C1691      C1692   1.420       .  A
C1692     Br1693   1.930       .  S
C1697      C1698   1.404       .  A
C1697      C1702   1.399       .  A
C1697     Br1704   1.941       .  S
C1698      C1699   1.411       .  A
C1699      C1700   1.413       .  A
C1699     Br1706   1.932       .  S
C1700      C1701   1.421       .  A
C1700     Br1705   1.931       .  S
C1701      C1702   1.420       .  A
C1702     Br1703   1.906       .  S
C1707      C1708   1.420       .  A
C1707      C1712   1.414       .  A
C1707     Br1714   1.923       .  S
C1708      C1709   1.424       .  A
C1709      C1710   1.404       .  A
C1709     Br1716   1.908       .  S
C1710      C1711   1.406       .  A
C1710     Br1715   1.939       .  S
C1711      C1712   1.410       .  A
C1712     Br1713   1.930       .  S
