geometry optimzed in LAMMPS
_audit_creation_date              2020-11-30 
_audit_creation_method            'lammps2cif' 
_symmetry_space_group_name_H-M    'P1' 
_symmetry_Int_Tables_number       1 
_symmetry_cell_setting            triclinic 
loop_ 
_symmetry_equiv_pos_as_xyz 
  x,y,z 
_cell_length_a                    34.77083224 
_cell_length_b                    34.770285769209465 
_cell_length_c                    43.22473623328848 
_cell_angle_alpha                 90.00041183939177 
_cell_angle_beta                  89.99117974967338 
_cell_angle_gamma                 90.00454112696552 
loop_ 
_atom_site_label 
_atom_site_type_symbol 
_atom_site_fract_x 
_atom_site_fract_y 
_atom_site_fract_z 
_atom_site_charge 
O1          O  0.15431069  0.39891711  0.65355321    -0.55800
C2          C  0.06479358  0.33021872  0.64312489     0.76800
O3          O  0.03758709  0.45463843  0.63877832    -0.57000
C4          C  0.16755984  0.43090142  0.64467028     0.76800
C5          C  0.09112384  0.41518739  0.56377343     0.79200
Cd6        Cd  0.09028442  0.40768577  0.62997571     1.37500
O7          O  0.09590034  0.34354608  0.65372040    -0.55800
O8          O  0.11136219  0.39012401  0.57734135    -0.54600
C9          C  0.04033535  0.45725007  0.66786682     0.79100
O10         O  0.07012918  0.43632029  0.58051396    -0.57000
O11         O  0.04598369  0.35189245  0.62514194    -0.55400
O12         O  0.14571512  0.45152587  0.62822649    -0.55400
O13         O  0.06624492  0.43654600  0.67991036    -0.54600
O14         O  0.09589294  0.34330138  0.22116718    -0.55800
C15         C  0.16746919  0.43073587  0.23000143     0.76800
O16         O  0.03759571  0.45455303  0.23595392    -0.57000
C17         C  0.06467963  0.33006624  0.23164125     0.76800
C18         C  0.09104237  0.41504724  0.31094509     0.79200
Cd19       Cd  0.09020218  0.40752930  0.24474698     1.37500
O20         O  0.15415762  0.39881479  0.22103479    -0.55800
O21         O  0.11130424  0.39000161  0.29737343    -0.54600
C22         C  0.04031221  0.45711661  0.20686061     0.79100
O23         O  0.07001589  0.43614855  0.29421023    -0.57000
O24         O  0.14568362  0.45131088  0.24654198    -0.55400
O25         O  0.04577201  0.35183106  0.24949083    -0.55400
O26         O  0.06617138  0.43635267  0.19480728    -0.54600
O27         O  0.37296082  0.06431874  0.65560339    -0.55800
C28         C  0.45743573  0.13647917  0.64166211     0.76800
O29         O  0.48663715  0.00988566  0.63843349    -0.57000
C30         C  0.35742628  0.03525485  0.64337751     0.76800
C31         C  0.43894148  0.05297759  0.56367222     0.79200
Cd32       Cd  0.43509130  0.05821446  0.62956393     1.37500
O33         O  0.42594888  0.12299077  0.65132479    -0.55800
O34         O  0.41759363  0.07742313  0.57685769    -0.54600
C35         C  0.48555259  0.00926837  0.66764641     0.79100
O36         O  0.45851715  0.03092210  0.58075041    -0.57000
O37         O  0.47806392  0.11440395  0.62539717    -0.55400
O38         O  0.37720757  0.01702927  0.62368473    -0.55400
O39         O  0.46095989  0.03151454  0.67968258    -0.54600
O40         O  0.42599901  0.12283612  0.22333186    -0.55800
C41         C  0.35742203  0.03512973  0.23143161     0.76800
O42         O  0.48659368  0.00979068  0.23635548    -0.57000
C43         C  0.45740257  0.13638772  0.23310228     0.76800
C44         C  0.43883131  0.05290590  0.31112743     0.79200
Cd45       Cd  0.43505936  0.05812694  0.24523240     1.37500
O46         O  0.37286221  0.06432866  0.21933228    -0.55800
O47         O  0.41720297  0.07708433  0.29792492    -0.54600
C48         C  0.48549873  0.00916548  0.20714318     0.79100
O49         O  0.45872383  0.03111116  0.29406463    -0.57000
O50         O  0.37729116  0.01678068  0.25098909    -0.55400
O51         O  0.47794623  0.11437815  0.24948678    -0.55400
O52         O  0.46089741  0.03140135  0.19511297    -0.54600
O53         O  0.30590413  0.98989045  0.23036707    -0.55800
C54         C  0.20457024  0.44509535  0.21911811     0.76800
O55         O  0.21548649  0.98973153  0.14412074    -0.57000
C56         C  0.32015506  0.02115373  0.22056878     0.76800
C57         C  0.32269564  0.44631351  0.15273670     0.79200
Cd58       Cd  0.26313448  0.48354317  0.18582226     1.37500
O59         O  0.21772901  0.47705469  0.22842405    -0.55800
O60         O  0.30344642  0.42851191  0.17310295    -0.54600
C61         C  0.20246990  0.02181519  0.15324011     0.79100
O62         O  0.31018883  0.47877558  0.14405053    -0.57000
O63         O  0.22288414  0.42799225  0.19782177    -0.55400
O64         O  0.30281812  0.03796700  0.19862187    -0.55400
O65         O  0.22112711  0.03914364  0.17421450    -0.54600
O66         O  0.37312187  0.40056303  0.72257546    -0.55800
C67         C  0.46012575  0.33078426  0.72972438     0.76800
O68         O  0.48767250  0.45741170  0.73630542    -0.57000
C69         C  0.35994146  0.43206291  0.73243803     0.76800
C70         C  0.44418181  0.40770257  0.81107320     0.79200
Cd71       Cd  0.43766562  0.40785795  0.74499579     1.37500
O72         O  0.42767919  0.34410173  0.72206180    -0.55800
O73         O  0.42799043  0.38048556  0.79676668    -0.54600
C74         C  0.48802579  0.45654643  0.70707396     0.79100
O75         O  0.45702706  0.43528275  0.79509924    -0.57000
O76         O  0.48198609  0.35269210  0.74514455    -0.55400
O77         O  0.38197690  0.45194003  0.74930856    -0.55400
O78         O  0.46508194  0.43265759  0.69496348    -0.54600
O79         O  0.42772784  0.34392672  0.15254498    -0.55800
C80         C  0.35997628  0.43185729  0.14234384     0.76800
O81         O  0.48770438  0.45734126  0.13841725    -0.57000
C82         C  0.46025423  0.33069216  0.14500278     0.76800
C83         C  0.44425250  0.40762304  0.06364720     0.79200
Cd84       Cd  0.43772545  0.40774806  0.12973113     1.37500
O85         O  0.37325641  0.40045397  0.15231521    -0.55800
O86         O  0.42817679  0.38033561  0.07795564    -0.54600
C87         C  0.48801398  0.45649701  0.16764965     0.79100
O88         O  0.45697901  0.43525550  0.07962155    -0.57000
O89         O  0.38192081  0.45167157  0.12534410    -0.55400
O90         O  0.48216720  0.35267007  0.12968978    -0.55400
O91         O  0.46505527  0.43261557  0.17975517    -0.54600
O92         O  0.15189385  0.06793812  0.72295419    -0.55800
C93         C  0.06273485  0.13679817  0.73129535     0.76800
O94         O  0.03614632  0.01057907  0.73605673    -0.57000
C95         C  0.16507837  0.03607381  0.73210376     0.76800
C96         C  0.08351590  0.05255513  0.81109882     0.79200
Cd97       Cd  0.08704894  0.05917527  0.74506411     1.37500
O98         O  0.09364998  0.12287648  0.72086093    -0.55800
O99         O  0.10514748  0.07700133  0.79820219    -0.54600
C100        C  0.03771364  0.00923621  0.70687311     0.79100
O101        O  0.06328342  0.03149984  0.79372478    -0.57000
O102        O  0.04347227  0.11561717  0.74934847    -0.55400
O103        O  0.14292543  0.01550326  0.74833727    -0.55400
O104        O  0.06234847  0.03138672  0.69475329    -0.54600
O105        O  0.09366330  0.12279069  0.15383905    -0.55800
C106        C  0.16514296  0.03608321  0.14266966     0.76800
O107        O  0.03601854  0.01064229  0.13868255    -0.57000
C108        C  0.06272751  0.13667948  0.14342334     0.76800
C109        C  0.08351902  0.05242865  0.06366759     0.79200
Cd110      Cd  0.08707730  0.05907640  0.12969052     1.37500
O111        O  0.15184246  0.06784251  0.15194604    -0.55800
O112        O  0.10473174  0.07725925  0.07653618    -0.54600
C113        C  0.03766484  0.00919126  0.16785891     0.79100
O114        O  0.06373610  0.03097700  0.08106752    -0.57000
O115        O  0.14309707  0.01557841  0.12629539    -0.55400
O116        O  0.04345267  0.11546729  0.12540610    -0.55400
O117        O  0.06239124  0.03123169  0.17998053    -0.54600
C118        C  0.01401914  0.48281998  0.18727542    -0.00500
O119        O  0.01600633  0.18685000  0.14551196    -0.55800
C120        C  0.47340494  0.29325831  0.15612012     0.76800
O121        O  0.50355006  0.18679679  0.23194590    -0.57000
C122        C  0.04814536  0.17374838  0.15442925     0.76800
C123        C  0.04945083  0.29304415  0.22095297     0.79200
Cd124      Cd  0.01069516  0.23309312  0.18821061     1.37500
O125        O  0.50515943  0.27914600  0.14732031    -0.55800
O126        O  0.06573459  0.27471254  0.19927579    -0.54600
C127        C  0.47129788  0.17401501  0.22302973     0.79100
O128        O  0.01779970  0.27978914  0.23083245    -0.57000
O129        O  0.45519843  0.27540609  0.17707607    -0.55400
O130        O  0.06549031  0.19216710  0.17553878    -0.55400
O131        O  0.45351305  0.19317037  0.20259460    -0.54600
O132        O  0.21773237  0.47730220  0.64633195    -0.55800
C133        C  0.32015647  0.02127211  0.65424048     0.76800
O134        O  0.21532474  0.98962533  0.73056726    -0.57000
C135        C  0.20464952  0.44527386  0.65555608     0.76800
C136        C  0.32266960  0.44653688  0.72205311     0.79200
Cd137      Cd  0.26313299  0.48371330  0.68891944     1.37500
O138        O  0.30584585  0.99007542  0.64436297    -0.55800
O139        O  0.30335559  0.42867241  0.70176713    -0.54600
C140        C  0.20240547  0.02178784  0.72154437     0.79100
O141        O  0.31023650  0.47906320  0.73065446    -0.57000
O142        O  0.30287864  0.03800158  0.67626228    -0.55400
O143        O  0.22301670  0.42811278  0.67678843    -0.55400
O144        O  0.22116888  0.03919978  0.70067210    -0.54600
O145        O  0.01601986  0.18697890  0.72919427    -0.55800
C146        C  0.47327054  0.29333934  0.71862521     0.76800
O147        O  0.01799054  0.27986417  0.64383506    -0.57000
C148        C  0.04815774  0.17386643  0.72027629     0.76800
C149        C  0.47131586  0.17411165  0.65173224     0.79200
Cd150      Cd  0.01071323  0.23323024  0.68649209     1.37500
O151        O  0.50496094  0.27917106  0.72750914    -0.55800
O152        O  0.45347939  0.19329649  0.67212522    -0.54600
C153        C  0.04955674  0.29319745  0.65381348     0.79100
O154        O  0.50360180  0.18686663  0.64286344    -0.57000
O155        O  0.45514150  0.27553729  0.69760324    -0.55400
O156        O  0.06550477  0.19227489  0.69915790    -0.55400
O157        O  0.06573559  0.27494372  0.67557899    -0.54600
C158        C  0.01401786  0.48293440  0.68745882    -0.00500
C159        C  0.08146945  0.04442264  0.96974876     0.19000
C160        C  0.04768720  0.03563148  0.95355143    -0.10100
C161        C  0.04769084  0.03565118  0.92119587    -0.10900
C162        C  0.08149177  0.04446584  0.90501653     0.20600
C163        C  0.11534769  0.05274206  0.92123790    -0.13000
C164        C  0.11534048  0.05272167  0.95354353    -0.11300
C165        C  0.08135675  0.04616631  0.87182135     0.01600
C166        C  0.08205183  0.04879704  0.84405886    -0.31100
C167        C  0.08131635  0.04608021  0.00294505     0.02900
C168        C  0.08202264  0.04868498  0.03070856    -0.32900
H169        H  0.02132889  0.02917308  0.96590430     0.14000
H170        H  0.02137083  0.02921669  0.90884498     0.13800
H171        H  0.14160846  0.05963284  0.90891691     0.13700
H172        H  0.14158085  0.05959316  0.96587124     0.12700
C173        C  0.45184954  0.40639835  0.96971540     0.19000
C174        C  0.44576752  0.37203985  0.95351772    -0.10100
C175        C  0.44574996  0.37204457  0.92118520    -0.10900
C176        C  0.45181620  0.40641687  0.90499791     0.20600
C177        C  0.45837411  0.44067369  0.92119944    -0.13000
C178        C  0.45839124  0.44066707  0.95352192    -0.11300
C179        C  0.45016329  0.40677436  0.87181467     0.01600
C180        C  0.44775886  0.40727380  0.84404581    -0.31300
C181        C  0.45022316  0.40673681  0.00290101     0.02900
C182        C  0.44782901  0.40721614  0.03067206    -0.32900
H183        H  0.44061295  0.34540155  0.96586317     0.14000
H184        H  0.44058673  0.34543056  0.90884140     0.13800
H185        H  0.46303362  0.46740421  0.90886319     0.13700
H186        H  0.46306140  0.46738337  0.96586090     0.12700
C187        C  0.44136087  0.04739433  0.40506284     0.19000
C188        C  0.47344617  0.03356644  0.42120896    -0.10100
C189        C  0.47348210  0.03357797  0.45355406    -0.10900
C190        C  0.44142634  0.04741997  0.46974062     0.20600
C191        C  0.40923841  0.06085327  0.45356856    -0.13000
C192        C  0.40920702  0.06084016  0.42127872    -0.11300
C193        C  0.44159338  0.04851865  0.50291636     0.01600
C194        C  0.44075954  0.05032126  0.53069622    -0.31300
C195        C  0.44146886  0.04847478  0.37188576     0.02900
C196        C  0.44062201  0.05026334  0.34410523    -0.32900
H197        H  0.49844504  0.02307721  0.40883009     0.14000
H198        H  0.49849110  0.02310362  0.46589289     0.13800
H199        H  0.38433323  0.07158648  0.46591130     0.13700
H200        H  0.38426931  0.07156847  0.40896556     0.12700
C201        C  0.09231781  0.42513057  0.40493571     0.19000
C202        C  0.12720103  0.42529165  0.42116367    -0.10100
C203        C  0.12721921  0.42531508  0.45352635    -0.10900
C204        C  0.09234152  0.42517803  0.46977626     0.20600
C205        C  0.05746974  0.42588522  0.45354375    -0.13000
C206        C  0.05745505  0.42586162  0.42119110    -0.11300
C207        C  0.09227892  0.42273482  0.50301047     0.01600
C208        C  0.09189338  0.41948936  0.53077516    -0.31300
C209        C  0.09223068  0.42264337  0.37170348     0.02900
C210        C  0.09182667  0.41936941  0.34394108    -0.32900
H211        H  0.15433248  0.42472775  0.40881688     0.14000
H212        H  0.15433448  0.42476895  0.46584370     0.13800
H213        H  0.03033354  0.42581065  0.46587655     0.13700
H214        H  0.03031735  0.42576957  0.40888064     0.12700
O215        O  0.15209996  0.89893695  0.65321411    -0.55800
C216        C  0.06435465  0.82948369  0.64352118     0.76800
O217        O  0.03823739  0.95752871  0.63854576    -0.57000
C218        C  0.16453107  0.93163125  0.64529340     0.76800
C219        C  0.08852819  0.91225629  0.56385870     0.79200
Cd220      Cd  0.08789007  0.90725358  0.63014799     1.37500
O221        O  0.09555818  0.84326640  0.65349905    -0.55800
O222        O  0.11372842  0.89336992  0.57841777    -0.54600
C223        C  0.03791662  0.95702540  0.66779319     0.79100
O224        O  0.06266422  0.92856067  0.57966999    -0.57000
O225        O  0.04457086  0.85085834  0.62599806    -0.55400
O226        O  0.14197116  0.95271657  0.62984148    -0.55400
O227        O  0.06093363  0.93331764  0.68005454    -0.54600
O228        O  0.09546511  0.84315842  0.22123571    -0.55800
C229        C  0.16444805  0.93155063  0.22937366     0.76800
O230        O  0.03813169  0.95740526  0.23616346    -0.57000
C231        C  0.06423321  0.82940862  0.23119312     0.76800
C232        C  0.08848960  0.91217007  0.31081990     0.79200
Cd233      Cd  0.08780828  0.90717106  0.24453573     1.37500
O234        O  0.15196272  0.89891568  0.22135252    -0.55800
O235        O  0.11362172  0.89320003  0.29624776    -0.54600
C236        C  0.03786182  0.95695903  0.20691542     0.79100
O237        O  0.06267020  0.92855758  0.29502285    -0.57000
O238        O  0.14193623  0.95258322  0.24492273    -0.55400
O239        O  0.04443152  0.85081520  0.24868283    -0.55400
O240        O  0.06091276  0.93329066  0.19464091    -0.54600
O241        O  0.37519799  0.56442889  0.65675878    -0.55800
C242        C  0.46010559  0.63604392  0.64164577     0.76800
O243        O  0.48787787  0.50832102  0.63848030    -0.57000
C244        C  0.35974654  0.53504090  0.64492388     0.76800
C245        C  0.43704732  0.55299777  0.56393325     0.79200
Cd246      Cd  0.43709475  0.55776629  0.63005488     1.37500
O247        O  0.42899855  0.62240909  0.65193872    -0.55800
O248        O  0.41463092  0.57529842  0.57832479    -0.54600
C249        C  0.48759861  0.50820656  0.66772930     0.79100
O250        O  0.45978677  0.53271042  0.57990349    -0.57000
O251        O  0.48021796  0.61410643  0.62483657    -0.55400
O252        O  0.37961195  0.51636448  0.62556784    -0.55400
O253        O  0.46380180  0.53115399  0.67994182    -0.54600
O254        O  0.42892803  0.62228693  0.22287124    -0.55800
C255        C  0.35969357  0.53494181  0.22981209     0.76800
O256        O  0.48791179  0.50830975  0.23626840    -0.57000
C257        C  0.46008503  0.63588270  0.23309412     0.76800
C258        C  0.43689184  0.55291714  0.31085179     0.79200
Cd259      Cd  0.43702578  0.55764535  0.24471714     1.37500
O260        O  0.37515214  0.56433459  0.21798895    -0.55800
O261        O  0.41485049  0.57557746  0.29645487    -0.54600
C262        C  0.48756990  0.50814288  0.20701893     0.79100
O263        O  0.45929974  0.53225444  0.29488341    -0.57000
O264        O  0.37953747  0.51626814  0.24917709    -0.55400
O265        O  0.48024007  0.61391460  0.24984249    -0.55400
O266        O  0.46371099  0.53103042  0.19481916    -0.54600
O267        O  0.30811575  0.48990211  0.22904058    -0.55800
C268        C  0.20167488  0.94584919  0.21874576     0.76800
O269        O  0.21622952  0.48901003  0.14393539    -0.57000
C270        C  0.32233232  0.52109686  0.21908097     0.76800
C271        C  0.32157521  0.94583552  0.15404605     0.79200
Cd272      Cd  0.26154787  0.98367809  0.18652310     1.37500
O273        O  0.21496142  0.97762257  0.22832230    -0.55800
O274        O  0.30244219  0.92840556  0.17470071    -0.54600
C275        C  0.20327095  0.52109246  0.15310937     0.79100
O276        O  0.30886388  0.97805859  0.14496871    -0.57000
O277        O  0.22023779  0.92866564  0.19763070    -0.55400
O278        O  0.30475027  0.53794415  0.19727756    -0.55400
O279        O  0.22214793  0.53852711  0.17389205    -0.54600
O280        O  0.37138517  0.89902171  0.72250595    -0.55800
C281        C  0.45840618  0.82907666  0.72950516     0.76800
O282        O  0.48169773  0.96160936  0.73589559    -0.57000
C283        C  0.35885457  0.93136735  0.73119160     0.76800
C284        C  0.44267637  0.90650633  0.81079663     0.79200
Cd285      Cd  0.43640576  0.90685361  0.74445106     1.37500
O286        O  0.42799709  0.84389134  0.71885405    -0.55800
O287        O  0.41346837  0.89285244  0.79728782    -0.54600
C288        C  0.48598172  0.95767245  0.70700879     0.79100
O289        O  0.46877439  0.92061936  0.79391990    -0.57000
O290        O  0.47790147  0.84950315  0.74789931    -0.55400
O291        O  0.38149654  0.95194935  0.74703362    -0.55400
O292        O  0.46675928  0.93057564  0.69507461    -0.54600
O293        O  0.42795452  0.84377575  0.15590705    -0.55800
C294        C  0.35888358  0.93128323  0.14359149     0.76800
O295        O  0.48166444  0.96154748  0.13888198    -0.57000
C296        C  0.45834590  0.82893143  0.14524252     0.76800
C297        C  0.44278049  0.90646235  0.06397046     0.79200
Cd298      Cd  0.43642933  0.90674888  0.13031543     1.37500
O299        O  0.37140311  0.89893353  0.15227931    -0.55800
O300        O  0.41337771  0.89316608  0.07744505    -0.54600
C301        C  0.48595194  0.95758726  0.16776491     0.79100
O302        O  0.46904254  0.92019088  0.08088149    -0.57000
O303        O  0.38153131  0.95185146  0.12773670    -0.55400
O304        O  0.47784318  0.84933478  0.12683020    -0.55400
O305        O  0.46675368  0.93046424  0.17968858    -0.54600
O306        O  0.15249866  0.56705006  0.72244379    -0.55800
C307        C  0.06390581  0.63699166  0.73277088     0.76800
O308        O  0.04062229  0.50758470  0.73625129    -0.57000
C309        C  0.16583742  0.53547153  0.73207909     0.76800
C310        C  0.08275304  0.55321252  0.81122053     0.79200
Cd311      Cd  0.08815310  0.55910014  0.74539762     1.37500
O312        O  0.09572500  0.62396316  0.72338251    -0.55800
O313        O  0.10704080  0.57526359  0.79858464    -0.54600
C314        C  0.03955256  0.50923122  0.70707116     0.79100
O315        O  0.06105798  0.53397001  0.79364392    -0.57000
O316        O  0.04362317  0.61468249  0.74913178    -0.55400
O317        O  0.14391604  0.51530615  0.74883916    -0.55400
O318        O  0.06147230  0.53413633  0.69502809    -0.54600
O319        O  0.09572084  0.62385125  0.15154842    -0.55800
C320        C  0.16592322  0.53541981  0.14270320     0.76800
O321        O  0.04063734  0.50756311  0.13850961    -0.57000
C322        C  0.06396924  0.63691742  0.14205363     0.76800
C323        C  0.08291217  0.55321884  0.06360650     0.79200
Cd324      Cd  0.08823880  0.55903984  0.12942527     1.37500
O325        O  0.15255280  0.56694925  0.15241701    -0.55800
O326        O  0.10711533  0.57533879  0.07626466    -0.54600
C327        C  0.03957940  0.50913447  0.16769245     0.79100
O328        O  0.06127318  0.53387402  0.08116134    -0.57000
O329        O  0.14403507  0.51530620  0.12588121    -0.55400
O330        O  0.04376985  0.61464994  0.12559525    -0.55400
O331        O  0.06153038  0.53398557  0.17976589    -0.54600
C332        C  0.01178520  0.98294312  0.18739682    -0.00500
O333        O  0.01727445  0.68712538  0.14367513    -0.55800
C334        C  0.47248104  0.79173422  0.15622807     0.76800
O335        O  0.50624266  0.68649006  0.23190241    -0.57000
C336        C  0.04954830  0.67426963  0.15254243     0.76800
C337        C  0.04983138  0.79231512  0.22015800     0.79200
Cd338      Cd  0.01188793  0.73322405  0.18641408     1.37500
O339        O  0.50395267  0.77793118  0.14649034    -0.55800
O340        O  0.06688694  0.77428758  0.19868405    -0.54600
C341        C  0.47404790  0.67349589  0.22299499     0.79100
O342        O  0.01798733  0.77886056  0.22939678    -0.57000
O343        O  0.45577077  0.77396443  0.17800691    -0.55400
O344        O  0.06708408  0.69310377  0.17331022    -0.55400
O345        O  0.45624949  0.69241210  0.20243547    -0.54600
O346        O  0.21496754  0.97777705  0.64645711    -0.55800
C347        C  0.32236499  0.52121058  0.65563718     0.76800
O348        O  0.21612058  0.48903743  0.73075810    -0.57000
C349        C  0.20174401  0.94593288  0.65594031     0.76800
C350        C  0.32154369  0.94590055  0.72074155     0.79200
Cd351      Cd  0.26154251  0.98373260  0.68825207     1.37500
O352        O  0.30816716  0.48999471  0.64570610    -0.55800
O353        O  0.30243353  0.92846865  0.70007915    -0.54600
C354        C  0.20319494  0.52116383  0.72165964     0.79100
O355        O  0.30881141  0.97811274  0.72982564    -0.57000
O356        O  0.30474361  0.53809901  0.67740432    -0.55400
O357        O  0.22034567  0.92868084  0.67699344    -0.55400
O358        O  0.22212412  0.53867402  0.70094368    -0.54600
O359        O  0.01720582  0.68719175  0.73105705    -0.55800
C360        C  0.47255100  0.79187909  0.71852896     0.76800
O361        O  0.01811453  0.77893396  0.64533271    -0.57000
C362        C  0.04951940  0.67435015  0.72226349     0.76800
C363        C  0.47407874  0.67365590  0.65173985     0.79200
Cd364      Cd  0.01197351  0.73332324  0.68832692     1.37500
O365        O  0.50404338  0.77810585  0.72824109    -0.55800
O366        O  0.45626905  0.69259399  0.67228474    -0.54600
C367        C  0.04995419  0.79239237  0.65456826     0.79100
O368        O  0.50629982  0.68661708  0.64285365    -0.57000
O369        O  0.45581731  0.77407153  0.69678592    -0.55400
O370        O  0.06713553  0.69320491  0.70154678    -0.55400
O371        O  0.06699932  0.77437347  0.67604857    -0.54600
C372        C  0.01183324  0.98299844  0.68732658    -0.00500
C373        C  0.07677560  0.54891052  0.96976002     0.19000
C374        C  0.05363963  0.52267673  0.95363038    -0.10100
C375        C  0.05358992  0.52265941  0.92125542    -0.10900
C376        C  0.07668533  0.54888691  0.90507011     0.20600
C377        C  0.09944770  0.57527590  0.92125535    -0.13000
C378        C  0.09949848  0.57529384  0.95352129    -0.11300
C379        C  0.07759470  0.54880739  0.87188283     0.01600
C380        C  0.07974729  0.55030515  0.84413248    -0.31100
C381        C  0.07776203  0.54885729  0.00294480     0.02900
C382        C  0.07993202  0.55034730  0.03069323    -0.32900
H383        H  0.03590100  0.50218445  0.96603071     0.14000
H384        H  0.03583290  0.50217408  0.90891038     0.13800
H385        H  0.11733933  0.59569682  0.90891644     0.13700
H386        H  0.11740386  0.59570201  0.96580225     0.12700
C387        C  0.45034268  0.90487833  0.96980720     0.19000
C388        C  0.46493000  0.93657208  0.95355688    -0.10100
C389        C  0.46489366  0.93657659  0.92118337    -0.10900
C390        C  0.45026894  0.90488519  0.90495407     0.20600
C391        C  0.43624324  0.87297580  0.92121581    -0.13000
C392        C  0.43628168  0.87297516  0.95356227    -0.11300
C393        C  0.44855274  0.90548910  0.87168843     0.01600
C394        C  0.44609237  0.90597731  0.84386978    -0.31300
C395        C  0.44867948  0.90548191  0.00307614     0.02900
C396        C  0.44622728  0.90596015  0.03089688    -0.32900
H397        H  0.47586748  0.96140879  0.96588370     0.14000
H398        H  0.47580227  0.96140748  0.90884499     0.13800
H399        H  0.42485870  0.84834348  0.90890608     0.13700
H400        H  0.42491692  0.84832768  0.96589358     0.12700
C401        C  0.43430980  0.55076106  0.40501414     0.19000
C402        C  0.42950740  0.51623433  0.42124400    -0.10100
C403        C  0.42956192  0.51624042  0.45358008    -0.10900
C404        C  0.43442040  0.55078385  0.46977941     0.20600
C405        C  0.43862871  0.58541461  0.45355515    -0.13000
C406        C  0.43857376  0.58540543  0.42121231    -0.11300
C407        C  0.43561454  0.55063410  0.50300600     0.01600
C408        C  0.43663239  0.55108097  0.53084704    -0.31300
C409        C  0.43542830  0.55058518  0.37178394     0.02900
C410        C  0.43643432  0.55101563  0.34394085    -0.32900
H411        H  0.42608038  0.48930902  0.40891376     0.14000
H412        H  0.42617553  0.48934590  0.46592207     0.13800
H413        H  0.44228826  0.61230198  0.46588618     0.13700
H414        H  0.44219469  0.61227824  0.40886282     0.12700
C415        C  0.09071176  0.91784150  0.40494580     0.19000
C416        C  0.05792583  0.92969981  0.42117412    -0.10100
C417        C  0.05792106  0.92971906  0.45350468    -0.10900
C418        C  0.09071080  0.91787704  0.46973115     0.20600
C419        C  0.12367011  0.90639011  0.45351715    -0.13000
C420        C  0.12366996  0.90637253  0.42116053    -0.11300
C421        C  0.09015673  0.91669394  0.50296894     0.01600
C422        C  0.08930606  0.91497745  0.53079186    -0.31300
C423        C  0.09015781  0.91662672  0.37170839     0.02900
C424        C  0.08929412  0.91489537  0.34388612    -0.32900
H425        H  0.03228697  0.93860794  0.40884426     0.14000
H426        H  0.03230039  0.93863380  0.46582580     0.13800
H427        H  0.14916141  0.89714937  0.46586017     0.13700
H428        H  0.14916802  0.89711631  0.40881514     0.12700
O429        O  0.65243039  0.39790678  0.65543862    -0.55800
C430        C  0.56286629  0.32942657  0.64138462     0.76800
O431        O  0.53859727  0.45539608  0.63859388    -0.57000
C432        C  0.66713176  0.42846771  0.64494141     0.76800
C433        C  0.59004935  0.41324674  0.56378818     0.79200
Cd434      Cd  0.58947614  0.40658207  0.62989058     1.37500
O435        O  0.59533433  0.34100816  0.65058926    -0.55800
O436        O  0.60844334  0.38690683  0.57746219    -0.54600
C437        C  0.53984182  0.45640327  0.66781190     0.79100
O438        O  0.57095753  0.43624683  0.58041796    -0.57000
O439        O  0.54310491  0.35283720  0.62561372    -0.55400
O440        O  0.64650263  0.44828307  0.62691913    -0.55400
O441        O  0.56417624  0.43397889  0.68000143    -0.54600
O442        O  0.59533966  0.34086613  0.22427447    -0.55800
C443        C  0.66706474  0.42838361  0.22970347     0.76800
O444        O  0.53852144  0.45529216  0.23612340    -0.57000
C445        C  0.56282984  0.32932417  0.23342150     0.76800
C446        C  0.58996908  0.41332660  0.31090470     0.79200
Cd447      Cd  0.58941295  0.40651745  0.24481533     1.37500
O448        O  0.65228664  0.39791352  0.21910832    -0.55800
O449        O  0.60840677  0.38699034  0.29725883    -0.54600
C450        C  0.53979901  0.45633370  0.20690794     0.79100
O451        O  0.57084302  0.43626647  0.29425130    -0.57000
O452        O  0.64650631  0.44812690  0.24783438    -0.55400
O453        O  0.54301330  0.35279041  0.24909771    -0.55400
O454        O  0.56415219  0.43393151  0.19470984    -0.54600
O455        O  0.87274971  0.06383361  0.65633334    -0.55800
C456        C  0.95878289  0.13612381  0.64349763     0.76800
O457        O  0.98522909  0.00834599  0.63852769    -0.57000
C458        C  0.85783189  0.03418757  0.64449319     0.76800
C459        C  0.93884536  0.05685113  0.56400175     0.79200
Cd460      Cd  0.93511955  0.05845637  0.63026208     1.37500
O461        O  0.92630633  0.12362640  0.65189193    -0.55800
O462        O  0.91714116  0.08015710  0.57809916    -0.54600
C463        C  0.98553785  0.00873344  0.66777220     0.79100
O464        O  0.95869972  0.03413007  0.58030122    -0.57000
O465        O  0.97978247  0.11330725  0.62824120    -0.55400
O466        O  0.87791020  0.01613765  0.62489292    -0.55400
O467        O  0.96220837  0.03211210  0.68006133    -0.54600
O468        O  0.92626751  0.12347665  0.22282174    -0.55800
C469        C  0.85775077  0.03410902  0.23027355     0.76800
O470        O  0.98532835  0.00841621  0.23620802    -0.57000
C471        C  0.95874485  0.13597179  0.23121122     0.76800
C472        C  0.93866730  0.05666171  0.31074832     0.79200
Cd473      Cd  0.93503980  0.05833181  0.24448585     1.37500
O474        O  0.87265841  0.06377691  0.21845885    -0.55800
O475        O  0.91739303  0.08034451  0.29663903    -0.54600
C476        C  0.98549139  0.00866674  0.20696203     0.79100
O477        O  0.95814033  0.03359528  0.29445907    -0.57000
O478        O  0.87783588  0.01602906  0.24984347    -0.55400
O479        O  0.97973450  0.11316070  0.24648048    -0.55400
O480        O  0.96202401  0.03190686  0.19468019    -0.54600
O481        O  0.80725313  0.98769341  0.22848124    -0.55800
C482        C  0.70446229  0.44231438  0.21905675     0.76800
O483        O  0.71434867  0.98984480  0.14390185    -0.57000
C484        C  0.82082564  0.01949422  0.21917775     0.76800
C485        C  0.82374533  0.44453413  0.15374450     0.79200
Cd486      Cd  0.76356152  0.48145286  0.18681116     1.37500
O487        O  0.71884006  0.47306900  0.22971341    -0.55800
O488        O  0.80478609  0.42657011  0.17421585    -0.54600
C489        C  0.70201444  0.02199853  0.15347784     0.79100
O490        O  0.81066766  0.47674141  0.14498290    -0.57000
O491        O  0.72188613  0.42623830  0.19678147    -0.55400
O492        O  0.80302149  0.03653739  0.19760080    -0.55400
O493        O  0.72151018  0.03878880  0.17423791    -0.54600
O494        O  0.87396700  0.39825997  0.72335475    -0.55800
C495        C  0.95886776  0.32861051  0.73128920     0.76800
O496        O  0.98343445  0.46156923  0.73586556    -0.57000
C497        C  0.86120626  0.43069674  0.73158449     0.76800
C498        C  0.94632851  0.40995389  0.81104299     0.79200
Cd499      Cd  0.93888344  0.40698829  0.74507521     1.37500
O500        O  0.92900536  0.34408715  0.72031256    -0.55800
O501        O  0.91549028  0.39910239  0.79826754    -0.54600
C502        C  0.98831843  0.45680744  0.70714105     0.79100
O503        O  0.97387585  0.41935458  0.79355377    -0.57000
O504        O  0.97857277  0.34854844  0.74988047    -0.55400
O505        O  0.88376517  0.45186035  0.74702100    -0.55400
O506        O  0.96969847  0.42913085  0.69547952    -0.54600
O507        O  0.92904087  0.34388974  0.15419242    -0.55800
C508        C  0.86125861  0.43060038  0.14319310     0.76800
O509        O  0.98358092  0.46139271  0.13883192    -0.57000
C510        C  0.95905757  0.32854049  0.14337100     0.76800
C511        C  0.94628939  0.40986416  0.06365191     0.79200
Cd512      Cd  0.93892631  0.40689142  0.12962481     1.37500
O513        O  0.87416395  0.39832158  0.15166025    -0.55800
O514        O  0.91578398  0.39813535  0.07645202    -0.54600
C515        C  0.98833783  0.45670231  0.16757610     0.79100
O516        O  0.97353669  0.42014244  0.08111909    -0.57000
O517        O  0.88367228  0.45161989  0.12749181    -0.55400
O518        O  0.97890118  0.34860860  0.12495884    -0.55400
O519        O  0.96962079  0.42909037  0.17924172    -0.54600
O520        O  0.65139402  0.06838704  0.72111869    -0.55800
C521        C  0.56167571  0.13801184  0.73023578     0.76800
O522        O  0.53814318  0.00940648  0.73624553    -0.57000
C523        C  0.66461813  0.03701072  0.73133416     0.76800
C524        C  0.58297238  0.05873124  0.81088640     0.79200
Cd525      Cd  0.58674864  0.06104628  0.74461920     1.37500
O526        O  0.59357743  0.12504457  0.72095341    -0.55800
O527        O  0.60711654  0.07973387  0.79701052    -0.54600
C528        C  0.53743824  0.01028843  0.70700730     0.79100
O529        O  0.56054434  0.03883138  0.79437738    -0.57000
O530        O  0.54195303  0.11623821  0.74746291    -0.55400
O531        O  0.64256770  0.01746979  0.74846828    -0.55400
O532        O  0.55985676  0.03461205  0.69479263    -0.54600
O533        O  0.59358765  0.12491781  0.15390206    -0.55800
C534        C  0.66466743  0.03697314  0.14344575     0.76800
O535        O  0.53811940  0.00935028  0.13855308    -0.57000
C536        C  0.56171011  0.13790240  0.14458988     0.76800
C537        C  0.58298467  0.05871370  0.06396136     0.79200
Cd538      Cd  0.58677558  0.06095365  0.13021335     1.37500
O539        O  0.65139481  0.06829250  0.15373369    -0.55800
O540        O  0.60693345  0.07992666  0.07784364    -0.54600
C541        C  0.53740286  0.01020876  0.16779118     0.79100
O542        O  0.56076499  0.03856183  0.08046042    -0.57000
O543        O  0.64265294  0.01746178  0.12626660    -0.55400
O544        O  0.54199698  0.11613999  0.12735013    -0.55400
O545        O  0.55982932  0.03450957  0.18002097    -0.54600
C546        C  0.51383029  0.48242119  0.18737113    -0.00500
O547        O  0.51408640  0.18706540  0.14748570    -0.55800
C548        C  0.97257973  0.29128534  0.15447767     0.76800
O549        O  0.00574352  0.18561181  0.22952758    -0.57000
C550        C  0.54664902  0.17454742  0.15596040     0.76800
C551        C  0.54729403  0.29228496  0.22335859     0.79200
Cd552      Cd  0.50898061  0.23338756  0.19001620     1.37500
O553        O  0.00371100  0.27685870  0.14462532    -0.55800
O554        O  0.56502097  0.27186619  0.20370792    -0.54600
C555        C  0.97307841  0.17342242  0.22103312     0.79100
O556        O  0.51405981  0.28122642  0.23143984    -0.57000
O557        O  0.95587738  0.27431030  0.17667507    -0.55400
O558        O  0.56407236  0.19316215  0.17690389    -0.55400
O559        O  0.95507500  0.19314880  0.20108572    -0.54600
O560        O  0.71880486  0.47326574  0.64504602    -0.55800
C561        C  0.82089685  0.01957049  0.65558810     0.76800
O562        O  0.71424328  0.98982097  0.73078816    -0.57000
C563        C  0.70451272  0.44241530  0.65559987     0.76800
C564        C  0.82368938  0.44462896  0.72104560     0.79200
Cd565      Cd  0.76352621  0.48153029  0.68794703     1.37500
O566        O  0.80729578  0.98779707  0.64625376    -0.55800
O567        O  0.80466580  0.42660333  0.70065254    -0.54600
C568        C  0.70195785  0.02202173  0.72127914     0.79100
O569        O  0.81068042  0.47689838  0.72972625    -0.57000
O570        O  0.80310354  0.03658889  0.67718822    -0.55400
O571        O  0.72199364  0.42625578  0.67780293    -0.55400
O572        O  0.72150686  0.03886201  0.70057263    -0.54600
O573        O  0.51402339  0.18715159  0.72730352    -0.55800
C574        C  0.97242163  0.29137110  0.72016981     0.76800
O575        O  0.51411359  0.28130699  0.64333480    -0.57000
C576        C  0.54660197  0.17464605  0.71884602     0.76800
C577        C  0.97311182  0.17357683  0.65366422     0.79200
Cd578      Cd  0.50894147  0.23348653  0.68477188     1.37500
O579        O  0.00347107  0.27688341  0.73012525    -0.55800
O580        O  0.95508960  0.19332089  0.67359304    -0.54600
C581        C  0.54731157  0.29240277  0.65146949     0.79100
O582        O  0.00579488  0.18574457  0.64518659    -0.57000
O583        O  0.95586066  0.27448318  0.69786657    -0.55400
O584        O  0.56403365  0.19326294  0.69790386    -0.55400
O585        O  0.56498457  0.27202716  0.67117527    -0.54600
C586        C  0.51385792  0.48247554  0.68736236    -0.00500
C587        C  0.58015218  0.05665688  0.96980273     0.19000
C588        C  0.55893483  0.02893013  0.95360971    -0.10100
C589        C  0.55893535  0.02891515  0.92125507    -0.10900
C590        C  0.58015896  0.05663424  0.90504941     0.20600
C591        C  0.60143251  0.08426516  0.92126132    -0.13000
C592        C  0.60142920  0.08427677  0.95357723    -0.11300
C593        C  0.58029654  0.05679175  0.87181349     0.01600
C594        C  0.58117694  0.05750251  0.84397226    -0.31100
C595        C  0.58029234  0.05682742  0.00303749     0.02900
C596        C  0.58117917  0.05752490  0.03087771    -0.32900
H597        H  0.54243238  0.00739875  0.96596631     0.14000
H598        H  0.54244587  0.00739135  0.90891844     0.13800
H599        H  0.61797987  0.10576687  0.90892876     0.13700
H600        H  0.61797653  0.10578818  0.96590009     0.12700
C601        C  0.95206416  0.41411135  0.96970641     0.19000
C602        C  0.91927107  0.42596018  0.95349845    -0.10100
C603        C  0.91928662  0.42597983  0.92118567    -0.10900
C604        C  0.95210215  0.41414861  0.90498698     0.20600
C605        C  0.98505328  0.40268257  0.92118092    -0.13000
C606        C  0.98503903  0.40266226  0.95352295    -0.11300
C607        C  0.95152065  0.41299270  0.87178956     0.01600
C608        C  0.94977132  0.41165542  0.84400438    -0.31300
C609        C  0.95144857  0.41292604  0.00290273     0.02900
C610        C  0.94969501  0.41157325  0.03068756    -0.32900
H611        H  0.89362365  0.43483672  0.96582997     0.14000
H612        H  0.89366393  0.43486567  0.90885245     0.13800
H613        H  0.01056603  0.39346478  0.90882865     0.13700
H614        H  0.01052003  0.39343755  0.96587338     0.12700
C615        C  0.94167200  0.05556425  0.40497769     0.19000
C616        C  0.97571612  0.04782145  0.42116476    -0.10100
C617        C  0.97577391  0.04787324  0.45352652    -0.10900
C618        C  0.94177949  0.05567027  0.46977547     0.20600
C619        C  0.90775333  0.06336336  0.45357471    -0.13000
C620        C  0.90770020  0.06331053  0.42124369    -0.11300
C621        C  0.94167429  0.05582377  0.50303571     0.01600
C622        C  0.94074315  0.05617492  0.53089271    -0.31300
C623        C  0.94147280  0.05564172  0.37171652     0.02900
C624        C  0.94052541  0.05596700  0.34385910    -0.32900
H625        H  0.00214451  0.04176174  0.40879232     0.14000
H626        H  0.00222500  0.04185376  0.46584105     0.13800
H627        H  0.88132099  0.06940757  0.46592458     0.13700
H628        H  0.88122130  0.06932005  0.40894172     0.12700
C629        C  0.59216832  0.41924952  0.40495670     0.19000
C630        C  0.60332669  0.45233506  0.42116879    -0.10100
C631        C  0.60335304  0.45230750  0.45355398    -0.10900
C632        C  0.59221798  0.41918329  0.46973316     0.20600
C633        C  0.58133566  0.38610788  0.45347805    -0.13000
C634        C  0.58131028  0.38613870  0.42118068    -0.11300
C635        C  0.59171365  0.41883795  0.50297698     0.01600
C636        C  0.59087476  0.41684329  0.53078400    -0.31300
C637        C  0.59163004  0.41896258  0.37171255     0.02900
C638        C  0.59078184  0.41697538  0.34390531    -0.32900
H639        H  0.61185066  0.47808701  0.40881030     0.14000
H640        H  0.61188640  0.47801307  0.46592639     0.13800
H641        H  0.57275080  0.36034233  0.46577614     0.13700
H642        H  0.57271037  0.36040265  0.40886122     0.12700
O643        O  0.65187159  0.89964157  0.65457794    -0.55800
C644        C  0.56413798  0.83034219  0.64305205     0.76800
O645        O  0.53757004  0.95713705  0.63867281    -0.57000
C646        C  0.66533625  0.93150173  0.64563900     0.76800
C647        C  0.59198677  0.91225887  0.56397017     0.79200
Cd648      Cd  0.58865436  0.90800669  0.63038229     1.37500
O649        O  0.59496056  0.84393664  0.65395483    -0.55800
O650        O  0.61409989  0.89042327  0.57910747    -0.54600
C651        C  0.53838005  0.95805903  0.66792826     0.79100
O652        O  0.56784626  0.93174500  0.57923580    -0.57000
O653        O  0.54496657  0.85207603  0.62536915    -0.55400
O654        O  0.64369620  0.95231567  0.62913373    -0.55400
O655        O  0.56264433  0.93568850  0.68025045    -0.54600
O656        O  0.59493409  0.84379894  0.22082566    -0.55800
C657        C  0.66526452  0.93140508  0.22904821     0.76800
O658        O  0.53747618  0.95698868  0.23609465    -0.57000
C659        C  0.56406611  0.83023961  0.23168089     0.76800
C660        C  0.59195275  0.91212984  0.31075248     0.79200
Cd661      Cd  0.58859401  0.90789677  0.24434621     1.37500
O662        O  0.65176248  0.89958806  0.22004938    -0.55800
O663        O  0.61401696  0.89025041  0.29560391    -0.54600
C664        C  0.53832549  0.95796069  0.20684093     0.79100
O665        O  0.56784666  0.93166667  0.29549985    -0.57000
O666        O  0.64366373  0.95217542  0.24562814    -0.55400
O667        O  0.54485134  0.85200758  0.24931078    -0.55400
O668        O  0.56262222  0.93563159  0.19450559    -0.54600
O669        O  0.87444403  0.56414107  0.65625349    -0.55800
C670        C  0.96050361  0.63606373  0.64418350     0.76800
O671        O  0.98947748  0.51036801  0.63879588    -0.57000
C672        C  0.85945658  0.53468761  0.64417217     0.76800
C673        C  0.94100712  0.55299835  0.56411382     0.79200
Cd674      Cd  0.93723984  0.55813361  0.63040343     1.37500
O675        O  0.92853364  0.62284120  0.65308668    -0.55800
O676        O  0.92335232  0.58016703  0.57741102    -0.54600
C677        C  0.98769479  0.50859147  0.66795242     0.79100
O678        O  0.95702005  0.52825460  0.58121541    -0.57000
O679        O  0.98106266  0.61407373  0.62775916    -0.55400
O680        O  0.87966503  0.51666536  0.62468296    -0.55400
O681        O  0.96262863  0.53012827  0.68018403    -0.54600
O682        O  0.92849456  0.62268949  0.22167293    -0.55800
C683        C  0.85948838  0.53454778  0.23058090     0.76800
O684        O  0.98940470  0.51017160  0.23595027    -0.57000
C685        C  0.96045412  0.63593719  0.23056371     0.76800
C686        C  0.94096600  0.55285496  0.31065937     0.79200
Cd687      Cd  0.93724104  0.55800109  0.24436222     1.37500
O688        O  0.87446026  0.56403215  0.21853388    -0.55800
O689        O  0.92306364  0.57985524  0.29735958    -0.54600
C690        C  0.98768203  0.50846254  0.20678930     0.79100
O691        O  0.95725628  0.52828810  0.29355806    -0.57000
O692        O  0.87971161  0.51647996  0.25002869    -0.55400
O693        O  0.98102935  0.61396820  0.24698823    -0.55400
O694        O  0.96266423  0.53005303  0.19456173    -0.54600
O695        O  0.80882329  0.48837645  0.22986311    -0.55800
C696        C  0.70254471  0.94521892  0.21826209     0.76800
O697        O  0.71797736  0.49009959  0.14417978    -0.57000
C698        C  0.82235658  0.51990768  0.21994197     0.76800
C699        C  0.82101258  0.94502739  0.15158246     0.79200
Cd700      Cd  0.76176900  0.98256427  0.18522222     1.37500
O701        O  0.71628275  0.97683074  0.22774715    -0.55800
O702        O  0.80186996  0.92712950  0.17196648    -0.54600
C703        C  0.70383559  0.52081558  0.15512421     0.79100
O704        O  0.80834237  0.97747530  0.14300484    -0.57000
O705        O  0.72061138  0.92782857  0.19698028    -0.55400
O706        O  0.80437812  0.53640811  0.19818257    -0.55400
O707        O  0.72137525  0.53632508  0.17757135    -0.54600
O708        O  0.87150650  0.89906250  0.72441500    -0.55800
C709        C  0.95975453  0.83018138  0.73177391     0.76800
O710        O  0.98543603  0.95824503  0.73625760    -0.57000
C711        C  0.85845059  0.93097012  0.73352927     0.76800
C712        C  0.94448363  0.91237812  0.81132440     0.79200
Cd713      Cd  0.93669054  0.90778035  0.74557814     1.37500
O714        O  0.92887424  0.84429795  0.72142560    -0.55800
O715        O  0.92198685  0.88830910  0.79893744    -0.54600
C716        C  0.98604180  0.95698749  0.70706238     0.79100
O717        O  0.96317669  0.93430592  0.79355520    -0.57000
O718        O  0.97951379  0.85131708  0.74949391    -0.55400
O719        O  0.88086054  0.95167207  0.74942682    -0.55400
O720        O  0.96356945  0.93253222  0.69509755    -0.54600
O721        O  0.92883083  0.84418427  0.15321196    -0.55800
C722        C  0.85850579  0.93091621  0.14123077     0.76800
O723        O  0.98534349  0.95827324  0.13846476    -0.57000
C724        C  0.95973578  0.83007014  0.14290483     0.76800
C725        C  0.94458670  0.91236682  0.06338995     0.79200
Cd726      Cd  0.93672795  0.90770383  0.12912978     1.37500
O727        O  0.87157636  0.89902608  0.15036764    -0.55800
O728        O  0.92183743  0.88850769  0.07574743    -0.54600
C729        C  0.98600713  0.95693630  0.16765625     0.79100
O730        O  0.96351145  0.93405443  0.08118652    -0.57000
O731        O  0.88089602  0.95159604  0.12528989    -0.55400
O732        O  0.97954417  0.85121793  0.12522542    -0.55400
O733        O  0.96361214  0.93240007  0.17961230    -0.54600
O734        O  0.65189297  0.56540574  0.71842417    -0.55800
C735        C  0.56382267  0.63660090  0.73014223     0.76800
O736        O  0.53956863  0.50894429  0.73610692    -0.57000
C737        C  0.66659654  0.53561744  0.73023078     0.76800
C738        C  0.58605873  0.55731677  0.81075692     0.79200
Cd739      Cd  0.58907645  0.55953059  0.74434404     1.37500
O740        O  0.59642417  0.62432349  0.72184643    -0.55800
O741        O  0.60670755  0.58161089  0.79668220    -0.54600
C742        C  0.53970752  0.50878727  0.70685118     0.79100
O743        O  0.56683154  0.53413683  0.79439218    -0.57000
O744        O  0.54340794  0.61400519  0.74614241    -0.55400
O745        O  0.64619895  0.51747589  0.74954095    -0.55400
O746        O  0.56291847  0.53223550  0.69453038    -0.54600
O747        O  0.59645128  0.62423178  0.15299393    -0.55800
C748        C  0.66669848  0.53561778  0.14455912     0.76800
O749        O  0.53953812  0.50895904  0.13864595    -0.57000
C750        C  0.56387232  0.63651609  0.14465455     0.76800
C751        C  0.58613608  0.55727132  0.06405965     0.79200
Cd752      Cd  0.58915223  0.55946289  0.13046001     1.37500
O753        O  0.65191162  0.56530790  0.15645984    -0.55800
O754        O  0.60652222  0.58178192  0.07813567    -0.54600
C755        C  0.53969722  0.50873800  0.16790070     0.79100
O756        O  0.56718683  0.53385344  0.08041991    -0.57000
O757        O  0.64637648  0.51754902  0.12515926    -0.55400
O758        O  0.54349495  0.61393262  0.12861714    -0.55400
O759        O  0.56295663  0.53211772  0.18024000    -0.54600
C760        C  0.51182680  0.98373726  0.18737627    -0.00500
O761        O  0.51604994  0.68549602  0.14757234    -0.55800
C762        C  0.97383977  0.79276846  0.15361635     0.76800
O763        O  0.00726923  0.68582057  0.22802672    -0.57000
C764        C  0.54888275  0.67339908  0.15573286     0.76800
C765        C  0.54945097  0.79278108  0.22165993     0.79200
Cd766      Cd  0.51109113  0.73282377  0.18943776     1.37500
O767        O  0.00491063  0.77856986  0.14340988    -0.55800
O768        O  0.56621340  0.77396601  0.20048401    -0.54600
C769        C  0.97472425  0.67318961  0.21967170     0.79100
O770        O  0.51777261  0.77963422  0.23156928    -0.57000
O771        O  0.95737799  0.77522119  0.17563384    -0.55400
O772        O  0.56663591  0.69271938  0.17608508    -0.55400
O773        O  0.95675918  0.69229492  0.19929723    -0.54600
O774        O  0.71630845  0.97697235  0.64699393    -0.55800
C775        C  0.82232930  0.52002321  0.65481869     0.76800
O776        O  0.71780609  0.49001954  0.73052467    -0.57000
C777        C  0.70261281  0.94531444  0.65642286     0.76800
C778        C  0.82095876  0.94508167  0.72318655     0.79200
Cd779      Cd  0.76177621  0.98264175  0.68951871     1.37500
O780        O  0.80879205  0.48850383  0.64487762    -0.55800
O781        O  0.80181971  0.92718453  0.70280493    -0.54600
C782        C  0.70373380  0.52080829  0.71966072     0.79100
O783        O  0.80829717  0.97753694  0.73175785    -0.57000
O784        O  0.80436139  0.53648733  0.67660533    -0.55400
O785        O  0.72070855  0.92787851  0.67766007    -0.55400
O786        O  0.72135367  0.53640282  0.69728911    -0.54600
O787        O  0.51600359  0.68558164  0.72717478    -0.55800
C788        C  0.97388672  0.79288535  0.72107488     0.76800
O789        O  0.51783701  0.77974227  0.64317773    -0.57000
C790        C  0.54885681  0.67349051  0.71905485     0.76800
C791        C  0.97480424  0.67330911  0.65506396     0.79200
Cd792      Cd  0.51113819  0.73294550  0.68532274     1.37500
O793        O  0.00494243  0.77869282  0.73130949    -0.55800
O794        O  0.95682172  0.69246262  0.67540316    -0.54600
C795        C  0.54951630  0.79288635  0.65307952     0.79100
O796        O  0.00738747  0.68588318  0.64673931    -0.57000
O797        O  0.95746136  0.77533079  0.69904854    -0.55400
O798        O  0.56665663  0.69282432  0.69873284    -0.55400
O799        O  0.56627137  0.77407366  0.67425636    -0.54600
C800        C  0.51187353  0.98382738  0.68740621    -0.00500
C801        C  0.58179312  0.55362420  0.96982500     0.19000
C802        C  0.60199870  0.52519189  0.95358522    -0.10100
C803        C  0.60199612  0.52518536  0.92122173    -0.10900
C804        C  0.58177781  0.55362353  0.90499676     0.20600
C805        C  0.56097192  0.58158999  0.92124553    -0.13000
C806        C  0.56097619  0.58159492  0.95359132    -0.11300
C807        C  0.58311700  0.55471067  0.87174065     0.01600
C808        C  0.58450679  0.55600713  0.84389730    -0.31100
C809        C  0.58314999  0.55470867  0.00307939     0.02900
C810        C  0.58456249  0.55598820  0.03092141    -0.32900
H811        H  0.61812310  0.50336175  0.96592386     0.14000
H812        H  0.61809806  0.50337857  0.90888661     0.13800
H813        H  0.54516708  0.60365549  0.90892045     0.13700
H814        H  0.54518737  0.60364626  0.96591833     0.12700
C815        C  0.95133406  0.91806450  0.96968104     0.19000
C816        C  0.98556522  0.92510205  0.95351441    -0.10100
C817        C  0.98554183  0.92509506  0.92114881    -0.10900
C818        C  0.95127859  0.91804861  0.90503279     0.20600
C819        C  0.91707784  0.91149867  0.92125397    -0.13000
C820        C  0.91710432  0.91150626  0.95350839    -0.11300
C821        C  0.95090415  0.91677645  0.87187901     0.01600
C822        C  0.94853203  0.91485961  0.84416982    -0.31300
C823        C  0.95101310  0.91680402  0.00283591     0.02900
C824        C  0.94865546  0.91488045  0.03054644    -0.32900
H825        H  0.01218204  0.93028623  0.96587901     0.14000
H826        H  0.01211902  0.93026987  0.90875449     0.13800
H827        H  0.89046669  0.90606715  0.90896026     0.13700
H828        H  0.89051627  0.90608073  0.96583905     0.12700
C829        C  0.94291448  0.54798778  0.40494728     0.19000
C830        C  0.96100882  0.51814667  0.42120123    -0.10100
C831        C  0.96103351  0.51817617  0.45360078    -0.10900
C832        C  0.94295844  0.54805564  0.46983178     0.20600
C833        C  0.92467047  0.57769272  0.45354715    -0.13000
C834        C  0.92464728  0.57766084  0.42121218    -0.11300
C835        C  0.94320924  0.54864176  0.50314270     0.01600
C836        C  0.94261876  0.55029563  0.53100783    -0.31300
C837        C  0.94314157  0.54851855  0.37163422     0.02900
C838        C  0.94255442  0.55014971  0.34376730    -0.32900
H839        H  0.97520355  0.49501282  0.40886311     0.14000
H840        H  0.97523167  0.49508436  0.46594569     0.13800
H841        H  0.91056441  0.60089769  0.46584784     0.13700
H842        H  0.91052992  0.60083672  0.40889878     0.12700
C843        C  0.59810788  0.91842001  0.40491448     0.19000
C844        C  0.57560699  0.94508300  0.42116113    -0.10100
C845        C  0.57560599  0.94511504  0.45353546    -0.10900
C846        C  0.59811176  0.91847776  0.46980275     0.20600
C847        C  0.62128316  0.89241279  0.45355211    -0.13000
C848        C  0.62128070  0.89238454  0.42118741    -0.11300
C849        C  0.59637439  0.91692685  0.50307208     0.01600
C850        C  0.59433916  0.91489725  0.53088175    -0.31300
C851        C  0.59636877  0.91681643  0.37164707     0.02900
C852        C  0.59432364  0.91476617  0.34383922    -0.32900
H853        H  0.55759176  0.96538053  0.40882601     0.14000
H854        H  0.55760430  0.96541976  0.46584519     0.13800
H855        H  0.63882084  0.87172224  0.46588058     0.13700
H856        H  0.63882203  0.87166701  0.40887362     0.12700
loop_ 
_geom_bond_atom_site_label_1 
_geom_bond_atom_site_label_2 
_geom_bond_distance 
_geom_bond_site_symmetry_2 
_ccdc_geom_bond_type 
O1            C4   1.263       .  A
O1           Cd6   2.468       .  S
C2           O11   1.265       .  A
C2            O7   1.263       .  A
C2          C153   1.467       .  S
O3            C9   1.264       .  A
O3           Cd6   2.483       .  S
C4           O12   1.264       .  A
C4          C135   1.461       .  S
C5           O10   1.263       .  A
C5            O8   1.264       .  A
C5          C208   1.434       .  S
Cd6          O13   2.523       .  S
Cd6          O12   2.458       .  S
Cd6          O11   2.486       .  S
Cd6           O7   2.463       .  S
Cd6          O10   2.460       .  S
Cd6           O8   2.467       .  S
C9           O13   1.265       .  A
C9          C158   1.534       .  S
O14          C17   1.263       .  A
O14         Cd19   2.463       .  S
C15          O24   1.264       .  A
C15          O20   1.263       .  A
C15          C54   1.461       .  S
O16          C22   1.264       .  A
O16         Cd19   2.483       .  S
C17          O25   1.265       .  A
C17         C123   1.467       .  S
C18          O23   1.263       .  A
C18          O21   1.264       .  A
C18         C210   1.434       .  S
Cd19         O26   2.522       .  S
Cd19         O25   2.486       .  S
Cd19         O24   2.459       .  S
Cd19         O20   2.467       .  S
Cd19         O23   2.460       .  S
Cd19         O21   2.467       .  S
C22          O26   1.265       .  A
C22         C118   1.533       .  S
O27          C30   1.262       .  A
O27         Cd32   2.445       .  S
C28          O37   1.264       .  A
C28          O33   1.262       .  A
C28         C149   1.461       .  S
O29          C35   1.263       .  A
O29         Cd32   2.487       .  S
C30          O38   1.265       .  A
C30         C133   1.461       .  S
C31          O36   1.264       .  A
C31          O34   1.264       .  A
C31         C194   1.430       .  S
Cd32         O39   2.523       .  S
Cd32         O38   2.483       .  S
Cd32         O37   2.466       .  S
Cd32         O33   2.461       .  S
Cd32         O36   2.453       .  S
Cd32         O34   2.451       .  S
C35          O39   1.265       .  A
C35         C800   1.533   1_545  S
O40          C43   1.262       .  A
O40         Cd45   2.461       .  S
C41          O50   1.265       .  A
C41          O46   1.262       .  A
C41          C56   1.461       .  S
O42          C48   1.263       .  A
O42         Cd45   2.487       .  S
C43          O51   1.264       .  A
C43         C127   1.461       .  S
C44          O49   1.264       .  A
C44          O47   1.264       .  A
C44         C196   1.430       .  S
Cd45         O52   2.523       .  S
Cd45         O51   2.466       .  S
Cd45         O50   2.482       .  S
Cd45         O46   2.445       .  S
Cd45         O49   2.453       .  S
Cd45         O47   2.451       .  S
C48          O52   1.265       .  A
C48         C760   1.533   1_545  S
O53          C56   1.267   1_565  A
O53        Cd272   2.453       .  S
C54          O63   1.267       .  A
C54          O59   1.267       .  A
O55          C61   1.267   1_565  A
O55        Cd272   2.443       .  S
C56          O64   1.267       .  A
C57          O62   1.267       .  A
C57          O60   1.267       .  A
C57          C80   1.461       .  S
Cd58         O63   2.441       .  S
Cd58         O59   2.436       .  S
Cd58         O62   2.442       .  S
Cd58         O60   2.435       .  S
Cd58        O267   2.447       .  S
Cd58        O269   2.444       .  S
Cd58        O279   2.440       .  S
Cd58        O278   2.432       .  S
C61          O65   1.267       .  A
C61         C106   1.463       .  S
O64        Cd272   2.428   1_545  S
O65        Cd272   2.445   1_545  S
O66          C69   1.261       .  A
O66         Cd71   2.458       .  S
C67          O76   1.266       .  A
C67          O72   1.264       .  A
C67         C146   1.461       .  S
O68          C74   1.264       .  A
O68         Cd71   2.476       .  S
C69          O77   1.264       .  A
C69         C136   1.461       .  S
C70          O75   1.263       .  A
C70          O73   1.263       .  A
C70         C180   1.431       .  S
Cd71         O78   2.516       .  S
Cd71         O77   2.477       .  S
Cd71         O76   2.461       .  S
Cd71         O72   2.453       .  S
Cd71         O75   2.460       .  S
Cd71         O73   2.455       .  S
C74          O78   1.265       .  A
C74         C586   1.531       .  S
O79          C82   1.264       .  A
O79         Cd84   2.453       .  S
C80          O89   1.264       .  A
C80          O85   1.262       .  A
O81          C87   1.264       .  A
O81         Cd84   2.477       .  S
C82          O90   1.266       .  A
C82         C120   1.461       .  S
C83          O88   1.263       .  A
C83          O86   1.263       .  A
C83         C182   1.431       .  S
Cd84         O91   2.515       .  S
Cd84         O90   2.461       .  S
Cd84         O89   2.477       .  S
Cd84         O85   2.458       .  S
Cd84         O88   2.460       .  S
Cd84         O86   2.455       .  S
C87          O91   1.265       .  A
C87         C546   1.531       .  S
O92          C95   1.263       .  A
O92         Cd97   2.468       .  S
C93         O102   1.265       .  A
C93          O98   1.262       .  A
C93         C148   1.465       .  S
O94         C100   1.263       .  A
O94         Cd97   2.478       .  S
C95         O103   1.264       .  A
C95         C140   1.463       .  S
C96         O101   1.263       .  A
C96          O99   1.264       .  A
C96         C166   1.432       .  S
Cd97        O104   2.530       .  S
Cd97        O103   2.470       .  S
Cd97        O102   2.486       .  S
Cd97         O98   2.460       .  S
Cd97        O101   2.456       .  S
Cd97         O99   2.461       .  S
C100        O104   1.265       .  A
C100        C372   1.535   1_545  S
O105        C108   1.262       .  A
O105       Cd110   2.460       .  S
C106        O115   1.264       .  A
C106        O111   1.263       .  A
O107        C113   1.263       .  A
O107       Cd110   2.478       .  S
C108        O116   1.265       .  A
C108        C122   1.464       .  S
C109        O114   1.263       .  A
C109        O112   1.264       .  A
C109        C168   1.432       .  S
Cd110       O117   2.530       .  S
Cd110       O116   2.486       .  S
Cd110       O115   2.471       .  S
Cd110       O111   2.468       .  S
Cd110       O114   2.456       .  S
Cd110       O112   2.461       .  S
C113        O117   1.265       .  A
C113        C332   1.535   1_545  S
C118        C690   1.531   1_455  S
C118        C515   1.532   1_455  S
C118        C327   1.531       .  S
O119        C122   1.267       .  A
O119       Cd124   2.455       .  S
C120        O129   1.267       .  A
C120        O125   1.267       .  A
O121        C127   1.266       .  A
O121       Cd552   2.438       .  S
C122        O130   1.267       .  A
C123        O128   1.267       .  A
C123        O126   1.267       .  A
Cd124       O130   2.440       .  S
Cd124       O128   2.468       .  S
Cd124       O126   2.446       .  S
Cd124       O549   2.438       .  S
Cd124       O559   2.445   1_455  S
Cd124       O557   2.436   1_455  S
Cd124       O553   2.434       .  S
O125       Cd552   2.440       .  S
C127        O131   1.267       .  A
O129       Cd552   2.438       .  S
O131       Cd552   2.443       .  S
O132        C135   1.267       .  A
O132       Cd137   2.435       .  S
C133        O142   1.267       .  A
C133        O138   1.267   1_545  A
O134        C140   1.267   1_565  A
O134       Cd351   2.443       .  S
C135        O143   1.267       .  A
C136        O141   1.267       .  A
C136        O139   1.267       .  A
Cd137       O143   2.441       .  S
Cd137       O141   2.442       .  S
Cd137       O139   2.435       .  S
Cd137       O348   2.445       .  S
Cd137       O358   2.440       .  S
Cd137       O356   2.432       .  S
Cd137       O352   2.447       .  S
O138       Cd351   2.454       .  S
C140        O144   1.267       .  A
O142       Cd351   2.428   1_545  S
O144       Cd351   2.445   1_545  S
O145        C148   1.267       .  A
O145       Cd150   2.455       .  S
C146        O155   1.267       .  A
C146        O151   1.267       .  A
O147        C153   1.267       .  A
O147       Cd150   2.468       .  S
C148        O156   1.267       .  A
C149        O154   1.266       .  A
C149        O152   1.267       .  A
Cd150       O157   2.447       .  S
Cd150       O156   2.441       .  S
Cd150       O583   2.437   1_455  S
Cd150       O579   2.434       .  S
Cd150       O582   2.438       .  S
Cd150       O580   2.445   1_455  S
O151       Cd578   2.440       .  S
O152       Cd578   2.443       .  S
C153        O157   1.267       .  A
O154       Cd578   2.438       .  S
O155       Cd578   2.438       .  S
C158        C677   1.531   1_455  S
C158        C502   1.532   1_455  S
C158        C314   1.531       .  S
C159        C167   1.436   1_556  S
C159        C160   1.401       .  A
C159        C164   1.400       .  A
C160        C161   1.399       .  A
C160        H169   1.084       .  S
C161        C162   1.401       .  A
C161        H170   1.083       .  S
C162        C165   1.436       .  S
C162        C163   1.400       .  A
C163        C164   1.396       .  A
C163        H171   1.084       .  S
C164        H172   1.083       .  S
C165        C166   1.204       .  T
C167        C168   1.204       .  T
C173        C181   1.436   1_556  S
C173        C174   1.401       .  A
C173        C178   1.400       .  A
C174        C175   1.398       .  A
C174        H183   1.084       .  S
C175        C176   1.401       .  A
C175        H184   1.083       .  S
C176        C179   1.436       .  S
C176        C177   1.400       .  A
C177        C178   1.397       .  A
C177        H185   1.084       .  S
C178        H186   1.083       .  S
C179        C180   1.203       .  T
C181        C182   1.203       .  T
C187        C195   1.435       .  S
C187        C188   1.401       .  A
C187        C192   1.400       .  A
C188        C189   1.398       .  A
C188        H197   1.084       .  S
C189        C190   1.401       .  A
C189        H198   1.083       .  S
C190        C193   1.435       .  S
C190        C191   1.400       .  A
C191        C192   1.396       .  A
C191        H199   1.083       .  S
C192        H200   1.084       .  S
C193        C194   1.203       .  T
C195        C196   1.203       .  T
C201        C209   1.439       .  S
C201        C202   1.401       .  A
C201        C206   1.401       .  A
C202        C203   1.399       .  A
C202        H211   1.084       .  S
C203        C204   1.401       .  A
C203        H212   1.083       .  S
C204        C207   1.439       .  S
C204        C205   1.401       .  A
C205        C206   1.398       .  A
C205        H213   1.084       .  S
C206        H214   1.083       .  S
C207        C208   1.205       .  T
C209        C210   1.205       .  T
O215        C218   1.263       .  A
O215       Cd220   2.462       .  S
C216        O225   1.265       .  A
C216        O221   1.262       .  A
C216        C367   1.463       .  S
O217        C223   1.264       .  A
O217       Cd220   2.484       .  S
C218        O226   1.265       .  A
C218        C349   1.461       .  S
C219        O224   1.264       .  A
C219        O222   1.263       .  A
C219        C422   1.433       .  S
Cd220       O227   2.520       .  S
Cd220       O226   2.457       .  S
Cd220       O225   2.479       .  S
Cd220       O221   2.458       .  S
Cd220       O224   2.466       .  S
Cd220       O222   2.458       .  S
C223        O227   1.265       .  A
C223        C372   1.533       .  S
O228        C231   1.262       .  A
O228       Cd233   2.457       .  S
C229        O238   1.265       .  A
C229        O234   1.263       .  A
C229        C268   1.461       .  S
O230        C236   1.264       .  A
O230       Cd233   2.483       .  S
C231        O239   1.265       .  A
C231        C337   1.463       .  S
C232        O237   1.264       .  A
C232        O235   1.263       .  A
C232        C424   1.433       .  S
Cd233       O240   2.520       .  S
Cd233       O239   2.479       .  S
Cd233       O238   2.457       .  S
Cd233       O234   2.462       .  S
Cd233       O237   2.466       .  S
Cd233       O235   2.457       .  S
C236        O240   1.265       .  A
C236        C332   1.533       .  S
O241        C244   1.263       .  A
O241       Cd246   2.453       .  S
C242        O251   1.264       .  A
C242        O247   1.262       .  A
C242        C363   1.462       .  S
O243        C249   1.264       .  A
O243       Cd246   2.491       .  S
C244        O252   1.264       .  A
C244        C347   1.461       .  S
C245        O250   1.265       .  A
C245        O248   1.263       .  A
C245        C408   1.432       .  S
Cd246       O253   2.524       .  S
Cd246       O252   2.471       .  S
Cd246       O251   2.477       .  S
Cd246       O247   2.455       .  S
Cd246       O250   2.466       .  S
Cd246       O248   2.446       .  S
C249        O253   1.265       .  A
C249        C586   1.534       .  S
O254        C257   1.262       .  A
O254       Cd259   2.454       .  S
C255        O264   1.264       .  A
C255        O260   1.263       .  A
C255        C270   1.461       .  S
O256        C262   1.264       .  A
O256       Cd259   2.491       .  S
C257        O265   1.264       .  A
C257        C341   1.462       .  S
C258        O263   1.265       .  A
C258        O261   1.263       .  A
C258        C410   1.432       .  S
Cd259       O266   2.524       .  S
Cd259       O265   2.477       .  S
Cd259       O264   2.470       .  S
Cd259       O260   2.453       .  S
Cd259       O263   2.466       .  S
Cd259       O261   2.446       .  S
C262        O266   1.265       .  A
C262        C546   1.535       .  S
O267        C270   1.267       .  A
C268        O277   1.267       .  A
C268        O273   1.267       .  A
O269        C275   1.267       .  A
C270        O278   1.267       .  A
C271        O276   1.267       .  A
C271        O274   1.268       .  A
C271        C294   1.464       .  S
Cd272       O277   2.440       .  S
Cd272       O273   2.436       .  S
Cd272       O276   2.443       .  S
Cd272       O274   2.445       .  S
C275        O279   1.267       .  A
C275        C320   1.462       .  S
O280        C283   1.263       .  A
O280       Cd285   2.467       .  S
C281        O290   1.263       .  A
C281        O286   1.263       .  A
C281        C360   1.463       .  S
O282        C288   1.265       .  A
O282       Cd285   2.498       .  S
C283        O291   1.265       .  A
C283        C350   1.464       .  S
C284        O289   1.263       .  A
C284        O287   1.264       .  A
C284        C394   1.435       .  S
Cd285       O292   2.520       .  S
Cd285       O291   2.473       .  S
Cd285       O290   2.466       .  S
Cd285       O286   2.470       .  S
Cd285       O289   2.463       .  S
Cd285       O287   2.467       .  S
C288        O292   1.265       .  A
C288        C800   1.535       .  S
O293        C296   1.263       .  A
O293       Cd298   2.471       .  S
C294        O303   1.265       .  A
C294        O299   1.263       .  A
O295        C301   1.265       .  A
O295       Cd298   2.498       .  S
C296        O304   1.263       .  A
C296        C334   1.463       .  S
C297        O302   1.263       .  A
C297        O300   1.264       .  A
C297        C396   1.435       .  S
Cd298       O305   2.519       .  S
Cd298       O304   2.466       .  S
Cd298       O303   2.473       .  S
Cd298       O299   2.467       .  S
Cd298       O302   2.464       .  S
Cd298       O300   2.468       .  S
C301        O305   1.265       .  A
C301        C760   1.535       .  S
O306        C309   1.263       .  A
O306       Cd311   2.463       .  S
C307        O316   1.265       .  A
C307        O312   1.263       .  A
C307        C362   1.464       .  S
O308        C314   1.263       .  A
O308       Cd311   2.469       .  S
C309        O317   1.264       .  A
C309        C354   1.462       .  S
C310        O315   1.263       .  A
C310        O313   1.265       .  A
C310        C380   1.430       .  S
Cd311       O318   2.521       .  S
Cd311       O317   2.470       .  S
Cd311       O316   2.482       .  S
Cd311       O312   2.462       .  S
Cd311       O315   2.449       .  S
Cd311       O313   2.456       .  S
C314        O318   1.266       .  A
O319        C322   1.263       .  A
O319       Cd324   2.462       .  S
C320        O329   1.264       .  A
C320        O325   1.263       .  A
O321        C327   1.263       .  A
O321       Cd324   2.469       .  S
C322        O330   1.264       .  A
C322        C336   1.464       .  S
C323        O328   1.263       .  A
C323        O326   1.265       .  A
C323        C382   1.430       .  S
Cd324       O331   2.521       .  S
Cd324       O330   2.481       .  S
Cd324       O329   2.470       .  S
Cd324       O325   2.463       .  S
Cd324       O328   2.449       .  S
Cd324       O326   2.456       .  S
C327        O331   1.266       .  A
C332        C476   1.533   1_465  S
C332        C729   1.533   1_455  S
O333        C336   1.267       .  A
O333       Cd338   2.453       .  S
C334        O343   1.267       .  A
C334        O339   1.267       .  A
O335        C341   1.267       .  A
O335       Cd766   2.448       .  S
C336        O344   1.268       .  A
C337        O342   1.267       .  A
C337        O340   1.267       .  A
Cd338       O763   2.445       .  S
Cd338       O773   2.451   1_455  S
Cd338       O344   2.439       .  S
Cd338       O771   2.438   1_455  S
Cd338       O767   2.450       .  S
Cd338       O342   2.453       .  S
Cd338       O340   2.445       .  S
O339       Cd766   2.443       .  S
C341        O345   1.267       .  A
O343       Cd766   2.448       .  S
O345       Cd766   2.434       .  S
O346        C349   1.267       .  A
O346       Cd351   2.435       .  S
C347        O356   1.267       .  A
C347        O352   1.267       .  A
O348        C354   1.267       .  A
C349        O357   1.267       .  A
C350        O355   1.267       .  A
C350        O353   1.268       .  A
Cd351       O357   2.440       .  S
Cd351       O355   2.443       .  S
Cd351       O353   2.445       .  S
C354        O358   1.267       .  A
O359        C362   1.267       .  A
O359       Cd364   2.453       .  S
C360        O369   1.267       .  A
C360        O365   1.267       .  A
O361        C367   1.267       .  A
O361       Cd364   2.452       .  S
C362        O370   1.268       .  A
C363        O368   1.267       .  A
C363        O366   1.267       .  A
Cd364       O371   2.445       .  S
Cd364       O370   2.440       .  S
Cd364       O797   2.437   1_455  S
Cd364       O793   2.449       .  S
Cd364       O796   2.445       .  S
Cd364       O794   2.451   1_455  S
O365       Cd792   2.443       .  S
O366       Cd792   2.434       .  S
C367        O371   1.267       .  A
O368       Cd792   2.448       .  S
O369       Cd792   2.448       .  S
C372        C463   1.533   1_465  S
C372        C716   1.533   1_455  S
C373        C381   1.435   1_556  S
C373        C374   1.402       .  A
C373        C378   1.399       .  A
C374        C375   1.399       .  A
C374        H383   1.084       .  S
C375        C376   1.402       .  A
C375        H384   1.083       .  S
C376        C379   1.435       .  S
C376        C377   1.399       .  A
C377        C378   1.395       .  A
C377        H385   1.084       .  S
C378        H386   1.083       .  S
C379        C380   1.203       .  T
C381        C382   1.203       .  T
C387        C395   1.439   1_556  S
C387        C388   1.402       .  A
C387        C392   1.401       .  A
C388        C389   1.399       .  A
C388        H397   1.084       .  S
C389        C390   1.402       .  A
C389        H398   1.083       .  S
C390        C393   1.439       .  S
C390        C391   1.401       .  A
C391        C392   1.398       .  A
C391        H399   1.083       .  S
C392        H400   1.084       .  S
C393        C394   1.206       .  T
C395        C396   1.206       .  T
C401        C409   1.437       .  S
C401        C402   1.400       .  A
C401        C406   1.401       .  A
C402        C403   1.398       .  A
C402        H411   1.084       .  S
C403        C404   1.401       .  A
C403        H412   1.083       .  S
C404        C407   1.437       .  S
C404        C405   1.401       .  A
C405        C406   1.398       .  A
C405        H413   1.084       .  S
C406        H414   1.083       .  S
C407        C408   1.204       .  T
C409        C410   1.204       .  T
C415        C423   1.437       .  S
C415        C416   1.401       .  A
C415        C420   1.401       .  A
C416        C417   1.397       .  A
C416        H425   1.084       .  S
C417        C418   1.401       .  A
C417        H426   1.083       .  S
C418        C421   1.437       .  S
C418        C419   1.401       .  A
C419        C420   1.399       .  A
C419        H427   1.083       .  S
C420        H428   1.084       .  S
C421        C422   1.204       .  T
C423        C424   1.204       .  T
O429        C432   1.263       .  A
O429       Cd434   2.470       .  S
C430        O439   1.265       .  A
C430        O435   1.263       .  A
C430        C581   1.463       .  S
O431        C437   1.264       .  A
O431       Cd434   2.480       .  S
C432        O440   1.263       .  A
C432        C563   1.462       .  S
C433        O438   1.264       .  A
C433        O436   1.264       .  A
C433        C636   1.432       .  S
Cd434       O441   2.524       .  S
Cd434       O440   2.460       .  S
Cd434       O439   2.475       .  S
Cd434       O435   2.458       .  S
Cd434       O438   2.460       .  S
Cd434       O436   2.457       .  S
C437        O441   1.266       .  A
C437        C586   1.534       .  S
O442        C445   1.263       .  A
O442       Cd447   2.458       .  S
C443        O452   1.263       .  A
C443        O448   1.263       .  A
C443        C482   1.462       .  S
O444        C450   1.264       .  A
O444       Cd447   2.480       .  S
C445        O453   1.265       .  A
C445        C551   1.463       .  S
C446        O451   1.264       .  A
C446        O449   1.264       .  A
C446        C638   1.432       .  S
Cd447       O454   2.524       .  S
Cd447       O453   2.475       .  S
Cd447       O452   2.460       .  S
Cd447       O448   2.470       .  S
Cd447       O451   2.460       .  S
Cd447       O449   2.457       .  S
C450        O454   1.266       .  A
C450        C546   1.533       .  S
O455        C458   1.262       .  A
O455       Cd460   2.451       .  S
C456        O465   1.264       .  A
C456        O461   1.263       .  A
C456        C577   1.462       .  S
O457        C463   1.264       .  A
O457       Cd460   2.490       .  S
C458        O466   1.264       .  A
C458        C561   1.462       .  S
C459        O464   1.264       .  A
C459        O462   1.264       .  A
C459        C622   1.433       .  S
Cd460       O467   2.522       .  S
Cd460       O466   2.485       .  S
Cd460       O465   2.461       .  S
Cd460       O461   2.470       .  S
Cd460       O464   2.460       .  S
Cd460       O462   2.459       .  S
C463        O467   1.265       .  A
O468        C471   1.263       .  A
O468       Cd473   2.470       .  S
C469        O478   1.264       .  A
C469        O474   1.262       .  A
C469        C484   1.462       .  S
O470        C476   1.264       .  A
O470       Cd473   2.490       .  S
C471        O479   1.264       .  A
C471        C555   1.462       .  S
C472        O477   1.264       .  A
C472        O475   1.264       .  A
C472        C624   1.433       .  S
Cd473       O480   2.522       .  S
Cd473       O479   2.461       .  S
Cd473       O478   2.485       .  S
Cd473       O474   2.451       .  S
Cd473       O477   2.460       .  S
Cd473       O475   2.458       .  S
C476        O480   1.265       .  A
O481        C484   1.268   1_565  A
O481       Cd700   2.456       .  S
C482        O491   1.267       .  A
C482        O487   1.267       .  A
O483        C489   1.267   1_565  A
O483       Cd700   2.444       .  S
C484        O492   1.267       .  A
C485        O490   1.267       .  A
C485        O488   1.268       .  A
C485        C508   1.464       .  S
Cd486       O695   2.449       .  S
Cd486       O697   2.449       .  S
Cd486       O707   2.440       .  S
Cd486       O706   2.430       .  S
Cd486       O491   2.444       .  S
Cd486       O487   2.437       .  S
Cd486       O490   2.445       .  S
Cd486       O488   2.448       .  S
C489        O493   1.267       .  A
C489        C534   1.465       .  S
O492       Cd700   2.422   1_545  S
O493       Cd700   2.451   1_545  S
O494        C497   1.263       .  A
O494       Cd499   2.464       .  S
C495        O504   1.263       .  A
C495        O500   1.262       .  A
C495        C574   1.459       .  S
O496        C502   1.264       .  A
O496       Cd499   2.482       .  S
C497        O505   1.266       .  A
C497        C564   1.464       .  S
C498        O503   1.263       .  A
C498        O501   1.264       .  A
C498        C608   1.431       .  S
Cd499       O506   2.517       .  S
Cd499       O505   2.473       .  S
Cd499       O504   2.465       .  S
Cd499       O500   2.459       .  S
Cd499       O503   2.461       .  S
Cd499       O501   2.454       .  S
C502        O506   1.265       .  A
O507        C510   1.262       .  A
O507       Cd512   2.459       .  S
C508        O517   1.266       .  A
C508        O513   1.263       .  A
O509        C515   1.264       .  A
O509       Cd512   2.482       .  S
C510        O518   1.263       .  A
C510        C548   1.459       .  S
C511        O516   1.263       .  A
C511        O514   1.264       .  A
C511        C610   1.431       .  S
Cd512       O519   2.517       .  S
Cd512       O518   2.466       .  S
Cd512       O517   2.474       .  S
Cd512       O513   2.463       .  S
Cd512       O516   2.461       .  S
Cd512       O514   2.454       .  S
C515        O519   1.265       .  A
O520        C523   1.264       .  A
O520       Cd525   2.480       .  S
C521        O530   1.264       .  A
C521        O526   1.263       .  A
C521        C576   1.463       .  S
O522        C528   1.264       .  A
O522       Cd525   2.492       .  S
C523        O531   1.264       .  A
C523        C568   1.465       .  S
C524        O529   1.263       .  A
C524        O527   1.264       .  A
C524        C594   1.432       .  S
Cd525       O532   2.522       .  S
Cd525       O531   2.468       .  S
Cd525       O530   2.475       .  S
Cd525       O526   2.461       .  S
Cd525       O529   2.460       .  S
Cd525       O527   2.460       .  S
C528        O532   1.265       .  A
C528        C800   1.534   1_545  S
O533        C536   1.263       .  A
O533       Cd538   2.460       .  S
C534        O543   1.264       .  A
C534        O539   1.264       .  A
O535        C541   1.264       .  A
O535       Cd538   2.492       .  S
C536        O544   1.264       .  A
C536        C550   1.463       .  S
C537        O542   1.263       .  A
C537        O540   1.264       .  A
C537        C596   1.432       .  S
Cd538       O545   2.521       .  S
Cd538       O544   2.474       .  S
Cd538       O543   2.468       .  S
Cd538       O539   2.479       .  S
Cd538       O542   2.460       .  S
Cd538       O540   2.460       .  S
C541        O545   1.265       .  A
C541        C760   1.534   1_545  S
C546        C755   1.534       .  S
O547        C550   1.267       .  A
O547       Cd552   2.451       .  S
C548        O557   1.267       .  A
C548        O553   1.267   1_655  A
O549        C555   1.267   1_455  A
C550        O558   1.267       .  A
C551        O556   1.267       .  A
C551        O554   1.267       .  A
Cd552       O558   2.439       .  S
Cd552       O556   2.450       .  S
Cd552       O554   2.437       .  S
C555        O559   1.267       .  A
O560        C563   1.267       .  A
O560       Cd565   2.437       .  S
C561        O570   1.267       .  A
C561        O566   1.268   1_545  A
O562        C568   1.267   1_565  A
O562       Cd779   2.444       .  S
C563        O571   1.267       .  A
C564        O569   1.267       .  A
C564        O567   1.268       .  A
Cd565       O776   2.450       .  S
Cd565       O786   2.440       .  S
Cd565       O571   2.444       .  S
Cd565       O784   2.430       .  S
Cd565       O780   2.450       .  S
Cd565       O569   2.445       .  S
Cd565       O567   2.449       .  S
O566       Cd779   2.456       .  S
C568        O572   1.267       .  A
O570       Cd779   2.422   1_545  S
O572       Cd779   2.452   1_545  S
O573        C576   1.267       .  A
O573       Cd578   2.451       .  S
C574        O583   1.267       .  A
C574        O579   1.267   1_655  A
O575        C581   1.267       .  A
O575       Cd578   2.451       .  S
C576        O584   1.267       .  A
C577        O582   1.267   1_655  A
C577        O580   1.267       .  A
Cd578       O585   2.437       .  S
Cd578       O584   2.439       .  S
C581        O585   1.267       .  A
C586        C742   1.534       .  S
C587        C595   1.437   1_556  S
C587        C588   1.401       .  A
C587        C592   1.400       .  A
C588        C589   1.399       .  A
C588        H597   1.084       .  S
C589        C590   1.401       .  A
C589        H598   1.083       .  S
C590        C593   1.437       .  S
C590        C591   1.400       .  A
C591        C592   1.397       .  A
C591        H599   1.084       .  S
C592        H600   1.084       .  S
C593        C594   1.204       .  T
C595        C596   1.204       .  T
C601        C609   1.436   1_556  S
C601        C602   1.400       .  A
C601        C606   1.401       .  A
C602        C603   1.397       .  A
C602        H611   1.084       .  S
C603        C604   1.400       .  A
C603        H612   1.083       .  S
C604        C607   1.436       .  S
C604        C605   1.401       .  A
C605        C606   1.398       .  A
C605        H613   1.084   1_655  S
C606        H614   1.083   1_655  S
C607        C608   1.203       .  T
C609        C610   1.203       .  T
C615        C623   1.438       .  S
C615        C616   1.401       .  A
C615        C620   1.401       .  A
C616        C617   1.399       .  A
C616        H625   1.084   1_655  S
C617        C618   1.401       .  A
C617        H626   1.083   1_655  S
C618        C621   1.438       .  S
C618        C619   1.401       .  A
C619        C620   1.398       .  A
C619        H627   1.083       .  S
C620        H628   1.084       .  S
C621        C622   1.205       .  T
C623        C624   1.205       .  T
C629        C637   1.437       .  S
C629        C630   1.402       .  A
C629        C634   1.400       .  A
C630        C631   1.400       .  A
C630        H639   1.084       .  S
C631        C632   1.402       .  A
C631        H640   1.083       .  S
C632        C635   1.437       .  S
C632        C633   1.400       .  A
C633        C634   1.396       .  A
C633        H641   1.084       .  S
C634        H642   1.083       .  S
C635        C636   1.204       .  T
C637        C638   1.204       .  T
O643        C646   1.263       .  A
O643       Cd648   2.452       .  S
C644        O653   1.265       .  A
C644        O649   1.263       .  A
C644        C795   1.464       .  S
O645        C651   1.265       .  A
O645       Cd648   2.490       .  S
C646        O654   1.265       .  A
C646        C777   1.459       .  S
C647        O652   1.264       .  A
C647        O650   1.263       .  A
C647        C850   1.435       .  S
Cd648       O655   2.528       .  S
Cd648       O654   2.457       .  S
Cd648       O653   2.477       .  S
Cd648       O649   2.460       .  S
Cd648       O652   2.468       .  S
Cd648       O650   2.463       .  S
C651        O655   1.265       .  A
C651        C800   1.537       .  S
O656        C659   1.263       .  A
O656       Cd661   2.460       .  S
C657        O666   1.265       .  A
C657        O662   1.263       .  A
C657        C696   1.459       .  S
O658        C664   1.265       .  A
O658       Cd661   2.490       .  S
C659        O667   1.265       .  A
C659        C765   1.464       .  S
C660        O665   1.264       .  A
C660        O663   1.263       .  A
C660        C852   1.435       .  S
Cd661       O668   2.527       .  S
Cd661       O667   2.477       .  S
Cd661       O666   2.458       .  S
Cd661       O662   2.452       .  S
Cd661       O665   2.468       .  S
Cd661       O663   2.463       .  S
C664        O668   1.265       .  A
C664        C760   1.536       .  S
O669        C672   1.262       .  A
O669       Cd674   2.461       .  S
C670        O679   1.265       .  A
C670        O675   1.263       .  A
C670        C791   1.465       .  S
O671        C677   1.263       .  A
O671       Cd674   2.488       .  S
C672        O680   1.263       .  A
C672        C775   1.462       .  S
C673        O678   1.264       .  A
C673        O676   1.265       .  A
C673        C836   1.435       .  S
Cd674       O681   2.522       .  S
Cd674       O680   2.479       .  S
Cd674       O679   2.473       .  S
Cd674       O675   2.473       .  S
Cd674       O678   2.464       .  S
Cd674       O676   2.463       .  S
C677        O681   1.265       .  A
O682        C685   1.263       .  A
O682       Cd687   2.473       .  S
C683        O692   1.263       .  A
C683        O688   1.262       .  A
C683        C698   1.462       .  S
O684        C690   1.263       .  A
O684       Cd687   2.488       .  S
C685        O693   1.265       .  A
C685        C769   1.465       .  S
C686        O691   1.264       .  A
C686        O689   1.265       .  A
C686        C838   1.435       .  S
Cd687       O694   2.522       .  S
Cd687       O693   2.473       .  S
Cd687       O692   2.479       .  S
Cd687       O688   2.461       .  S
Cd687       O691   2.465       .  S
Cd687       O689   2.463       .  S
C690        O694   1.265       .  A
O695        C698   1.268       .  A
C696        O705   1.267       .  A
C696        O701   1.267       .  A
O697        C703   1.267       .  A
C698        O706   1.267       .  A
C699        O704   1.267       .  A
C699        O702   1.267       .  A
C699        C722   1.463       .  S
Cd700       O705   2.435       .  S
Cd700       O701   2.433       .  S
Cd700       O704   2.446       .  S
Cd700       O702   2.447       .  S
C703        O707   1.267       .  A
C703        C748   1.463       .  S
O708        C711   1.262       .  A
O708       Cd713   2.463       .  S
C709        O718   1.264       .  A
C709        O714   1.263       .  A
C709        C788   1.462       .  S
O710        C716   1.263       .  A
O710       Cd713   2.473       .  S
C711        O719   1.264       .  A
C711        C778   1.463       .  S
C712        O717   1.262       .  A
C712        O715   1.265       .  A
C712        C822   1.429       .  S
Cd713       O720   2.525       .  S
Cd713       O719   2.475       .  S
Cd713       O718   2.470       .  S
Cd713       O714   2.457       .  S
Cd713       O717   2.449       .  S
Cd713       O715   2.457       .  S
C716        O720   1.265       .  A
O721        C724   1.263       .  A
O721       Cd726   2.457       .  S
C722        O731   1.264       .  A
C722        O727   1.262       .  A
O723        C729   1.263       .  A
O723       Cd726   2.472       .  S
C724        O732   1.264       .  A
C724        C762   1.462       .  S
C725        O730   1.262       .  A
C725        O728   1.265       .  A
C725        C824   1.429       .  S
Cd726       O733   2.525       .  S
Cd726       O732   2.470       .  S
Cd726       O731   2.475       .  S
Cd726       O727   2.463       .  S
Cd726       O730   2.450       .  S
Cd726       O728   2.457       .  S
C729        O733   1.265       .  A
O734        C737   1.263       .  A
O734       Cd739   2.463       .  S
C735        O744   1.265       .  A
C735        O740   1.263       .  A
C735        C790   1.465       .  S
O736        C742   1.265       .  A
O736       Cd739   2.487       .  S
C737        O745   1.264       .  A
C737        C782   1.463       .  S
C738        O743   1.264       .  A
C738        O741   1.264       .  A
C738        C808   1.434       .  S
Cd739       O746   2.523       .  S
Cd739       O745   2.477       .  S
Cd739       O744   2.473       .  S
Cd739       O740   2.467       .  S
Cd739       O743   2.461       .  S
Cd739       O741   2.466       .  S
C742        O746   1.265       .  A
O747        C750   1.263       .  A
O747       Cd752   2.467       .  S
C748        O757   1.264       .  A
C748        O753   1.263       .  A
O749        C755   1.265       .  A
O749       Cd752   2.487       .  S
C750        O758   1.265       .  A
C750        C764   1.465       .  S
C751        O756   1.264       .  A
C751        O754   1.265       .  A
C751        C810   1.434       .  S
Cd752       O759   2.522       .  S
Cd752       O758   2.473       .  S
Cd752       O757   2.477       .  S
Cd752       O753   2.463       .  S
Cd752       O756   2.461       .  S
Cd752       O754   2.466       .  S
C755        O759   1.265       .  A
O761        C764   1.267       .  A
O761       Cd766   2.452       .  S
C762        O771   1.267       .  A
C762        O767   1.267   1_655  A
O763        C769   1.266   1_455  A
C764        O772   1.267       .  A
C765        O770   1.267       .  A
C765        O768   1.267       .  A
Cd766       O772   2.451       .  S
Cd766       O770   2.453       .  S
Cd766       O768   2.439       .  S
C769        O773   1.268       .  A
O774        C777   1.267       .  A
O774       Cd779   2.433       .  S
C775        O784   1.267       .  A
C775        O780   1.268       .  A
O776        C782   1.267       .  A
C777        O785   1.267       .  A
C778        O783   1.267       .  A
C778        O781   1.267       .  A
Cd779       O785   2.435       .  S
Cd779       O783   2.446       .  S
Cd779       O781   2.447       .  S
C782        O786   1.267       .  A
O787        C790   1.267       .  A
O787       Cd792   2.452       .  S
C788        O797   1.267       .  A
C788        O793   1.267   1_655  A
O789        C795   1.267       .  A
O789       Cd792   2.454       .  S
C790        O798   1.267       .  A
C791        O796   1.266   1_655  A
C791        O794   1.268       .  A
Cd792       O799   2.439       .  S
Cd792       O798   2.451       .  S
C795        O799   1.267       .  A
C801        C809   1.439   1_556  S
C801        C802   1.401       .  A
C801        C806   1.401       .  A
C802        C803   1.399       .  A
C802        H811   1.084       .  S
C803        C804   1.401       .  A
C803        H812   1.083       .  S
C804        C807   1.439       .  S
C804        C805   1.401       .  A
C805        C806   1.398       .  A
C805        H813   1.084       .  S
C806        H814   1.083       .  S
C807        C808   1.205       .  T
C809        C810   1.205       .  T
C815        C823   1.434   1_556  S
C815        C816   1.402       .  A
C815        C820   1.399       .  A
C816        C817   1.399       .  A
C816        H825   1.084   1_655  S
C817        C818   1.402       .  A
C817        H826   1.083   1_655  S
C818        C821   1.434       .  S
C818        C819   1.399       .  A
C819        C820   1.394       .  A
C819        H827   1.084       .  S
C820        H828   1.084       .  S
C821        C822   1.202       .  T
C823        C824   1.202       .  T
C829        C837   1.440       .  S
C829        C830   1.402       .  A
C829        C834   1.401       .  A
C830        C831   1.400       .  A
C830        H839   1.084       .  S
C831        C832   1.402       .  A
C831        H840   1.083       .  S
C832        C835   1.440       .  S
C832        C833   1.401       .  A
C833        C834   1.398       .  A
C833        H841   1.084       .  S
C834        H842   1.083       .  S
C835        C836   1.206       .  T
C837        C838   1.206       .  T
C843        C851   1.440       .  S
C843        C844   1.402       .  A
C843        C848   1.401       .  A
C844        C845   1.399       .  A
C844        H853   1.084       .  S
C845        C846   1.402       .  A
C845        H854   1.083       .  S
C846        C849   1.440       .  S
C846        C847   1.401       .  A
C847        C848   1.399       .  A
C847        H855   1.083       .  S
C848        H856   1.084       .  S
C849        C850   1.206       .  T
C851        C852   1.206       .  T
