geometry optimzed in LAMMPS
_audit_creation_date              2020-11-30 
_audit_creation_method            'lammps2cif' 
_symmetry_space_group_name_H-M    'P1' 
_symmetry_Int_Tables_number       1 
_symmetry_cell_setting            triclinic 
loop_ 
_symmetry_equiv_pos_as_xyz 
  x,y,z 
_cell_length_a                    40.97028555 
_cell_length_b                    39.703402853400696 
_cell_length_c                    36.16158429277324 
_cell_angle_alpha                 89.98749440466774 
_cell_angle_beta                  89.86692311156824 
_cell_angle_gamma                 89.16113437369165 
loop_ 
_atom_site_label 
_atom_site_type_symbol 
_atom_site_fract_x 
_atom_site_fract_y 
_atom_site_fract_z 
_atom_site_charge 
C1          C  0.24459568  0.14176889  0.34448362    -0.01800
C2          C  0.14585771  0.25788384  0.35782676    -0.01800
C3          C  0.35882553  0.23562226  0.35344452    -0.01800
C4          C  0.25681072  0.34807239  0.36005659    -0.01800
C5          C  0.23938757  0.15101106  0.18397351    -0.01800
C6          C  0.14216940  0.27013822  0.18999811    -0.01800
C7          C  0.35679964  0.24056062  0.19060247    -0.01800
C8          C  0.25872709  0.35923110  0.19083656    -0.01800
O9          O  0.03268412  0.22106646  0.06527918    -0.71100
O10         O  0.47160788  0.20916722  0.48734453    -0.71400
O11         O  0.03758433  0.21638767  0.48815263    -0.71200
O12         O  0.46917167  0.21546978  0.06168422    -0.71200
O13         O  0.46314375  0.26983174  0.05714871    -0.71200
O14         O  0.02936311  0.27031452  0.48220421    -0.71200
O15         O  0.46332608  0.26331315  0.48528353    -0.71100
O16         O  0.02710781  0.27514928  0.05868946    -0.71300
V17         V  0.00203515  0.21567180  0.02585659     1.35200
V18         V  0.49648272  0.26947029  0.02085647     1.35200
C19         C  0.04003044  0.25043269  0.07575020     0.78100
C20         C  0.45650321  0.23425042  0.47355212     0.78200
C21         C  0.04451484  0.24385300  0.47238843     0.78000
C22         C  0.45497630  0.24239779  0.07183134     0.78000
O23         O  0.28587043  0.47018638  0.48727026    -0.71100
O24         O  0.27793703  0.04184275  0.05356126    -0.71400
O25         O  0.28384595  0.47643780  0.06154383    -0.71200
O26         O  0.27788770  0.03668289  0.48196140    -0.71200
O27         O  0.22506034  0.03340678  0.48003924    -0.71200
O28         O  0.23152819  0.46941014  0.05705531    -0.71200
O29         O  0.22585738  0.03236424  0.05484540    -0.71100
O30         O  0.23345269  0.46450857  0.48297765    -0.71300
V31         V  0.28114466  0.50748528  0.02117562     1.35200
V32         V  0.23066176  0.50213057  0.01815074     1.35200
C33         C  0.26179607  0.45578957  0.47245146     0.78100
C34         C  0.24976865  0.04947100  0.06579865     0.78200
C35         C  0.25828205  0.46218715  0.07292330     0.78000
C36         C  0.25114427  0.04574462  0.46748405     0.78000
C37         C  0.26099277  0.44742794  0.14049810    -0.11600
C38         C  0.25976974  0.43701104  0.10339688     0.05400
C39         C  0.26036870  0.40237238  0.09572705    -0.06900
C40         C  0.26161238  0.37906190  0.12471656    -0.07700
C41         C  0.26179049  0.38859637  0.16243050    -0.02200
C42         C  0.26138042  0.42395706  0.17006039     0.04600
N43         N  0.25882138  0.43709305  0.20680307     0.67100
H44         H  0.26030673  0.47414583  0.14666352     0.16000
H45         H  0.26185497  0.35261948  0.11745348     0.15700
N46         N  0.26002104  0.39011015  0.05852425     0.74800
O47         O  0.28003605  0.45748220  0.21781910    -0.38600
O48         O  0.23131420  0.43739227  0.22255875    -0.38600
O49         O  0.27985183  0.36703986  0.04916584    -0.39300
O50         O  0.23605759  0.39691740  0.03783321    -0.39300
C51         C  0.37640273  0.25273464  0.12503769    -0.11600
C52         C  0.38465964  0.24097934  0.16089340     0.05400
C53         C  0.41751476  0.22815119  0.16529357    -0.06900
C54         C  0.43873416  0.22710763  0.13479338    -0.07700
C55         C  0.43037031  0.24176773  0.10119102    -0.02200
C56         C  0.39955596  0.25672600  0.09714496     0.04600
N57         N  0.39208869  0.27823143  0.06644816     0.67100
H58         H  0.35210722  0.26155998  0.11886913     0.16000
H59         H  0.46312728  0.21666248  0.13814580     0.15700
N60         N  0.43113666  0.21638322  0.19943693     0.74800
O61         O  0.39198310  0.26678911  0.03397347    -0.38600
O62         O  0.38906719  0.30956845  0.07154151    -0.38600
O63         O  0.44659743  0.18862203  0.19912431    -0.39300
O64         O  0.43937987  0.23795995  0.22311917    -0.38900
C65         C  0.34060759  0.30497898  0.16865335    -0.11600
C66         C  0.33530540  0.27592520  0.19119294     0.05400
C67         C  0.30879394  0.28077493  0.21633720    -0.06900
C68         C  0.28552885  0.30617378  0.21203884    -0.07700
C69         C  0.28806608  0.33264462  0.18748130    -0.02200
C70         C  0.31776394  0.33272830  0.16623864     0.04600
N71         N  0.32706441  0.36111732  0.14447284     0.67100
H72         H  0.36335517  0.30769801  0.15398070     0.16000
H73         H  0.26565575  0.30719386  0.23148368     0.15700
N74         N  0.30629093  0.26252341  0.24961299     0.74800
O75         O  0.33389139  0.38848147  0.16020286    -0.38600
O76         O  0.33522013  0.35682418  0.11110377    -0.38600
O77         O  0.30831236  0.23122206  0.24845182    -0.39300
O78         O  0.29636519  0.27704568  0.27873569    -0.39300
C79         C  0.08154312  0.28577578  0.10648315    -0.11600
C80         C  0.06346774  0.25632039  0.10673185     0.05400
C81         C  0.06743252  0.23435883  0.13708732    -0.06900
C82         C  0.09022645  0.24152558  0.16511423    -0.07700
C83         C  0.11177002  0.26911245  0.16296510    -0.02200
C84         C  0.10485243  0.29279435  0.13369266     0.04600
N85         N  0.11912606  0.32526833  0.13113017     0.67100
H86         H  0.07775547  0.30392836  0.08443940     0.16000
H87         H  0.09269714  0.22338160  0.18707713     0.15700
N88         N  0.04859720  0.20449766  0.14005646     0.74800
O89         O  0.14025457  0.33033288  0.10635232    -0.38600
O90         O  0.10301113  0.35021179  0.14341969    -0.38600
O91         O  0.06113232  0.17660256  0.13051091    -0.39300
O92         O  0.02295159  0.20490607  0.15942789    -0.39300
C93         C  0.22531538  0.30926692  0.16054726    -0.11600
C94         C  0.22526801  0.34067967  0.17918027     0.05400
C95         C  0.19304006  0.35489983  0.18239849    -0.06900
C96         C  0.16604256  0.33320832  0.18697474    -0.07700
C97         C  0.16760205  0.29886864  0.17668073    -0.02200
C98         C  0.19609225  0.29119684  0.15457818     0.04600
N99         N  0.19536229  0.26622133  0.12571611     0.67100
H100        H  0.24761560  0.29969135  0.14832421     0.16000
H101        H  0.14325766  0.34457528  0.19427536     0.15700
N102        N  0.18712144  0.39063559  0.18225446     0.74800
O103        O  0.16999971  0.26300371  0.10638214    -0.38600
O104        O  0.22114117  0.25094855  0.11579217    -0.38600
O105        O  0.19241687  0.40678603  0.15286088    -0.39300
O106        O  0.16807122  0.40358278  0.20598942    -0.39300
C107        C  0.24556425  0.13357902  0.11704420    -0.11600
C108        C  0.23677715  0.12367417  0.15319426     0.05400
C109        C  0.22889172  0.08880671  0.15814217    -0.06900
C110        C  0.23303331  0.06586713  0.12890455    -0.07700
C111        C  0.24482442  0.07576150  0.09449892    -0.02200
C112        C  0.25048043  0.11013081  0.08846864     0.04600
N113        N  0.26220720  0.12185052  0.05386988     0.67100
H114        H  0.25059703  0.15980380  0.11134423     0.16000
H115        H  0.22716926  0.03962146  0.13340845     0.15700
N116        N  0.21412926  0.07565226  0.19079070     0.74800
O117        O  0.24269804  0.13777621  0.03307775    -0.38600
O118        O  0.29251156  0.12603336  0.05017839    -0.38600
O119        O  0.18420817  0.06879007  0.18907429    -0.39300
O120        O  0.23173696  0.05826807  0.21235021    -0.39300
C121        C  0.15907269  0.20917656  0.16154618    -0.11600
C122        C  0.16390016  0.23678206  0.18707214     0.05400
C123        C  0.19335891  0.23479141  0.20788544    -0.06900
C124        C  0.21470992  0.20864143  0.20022259    -0.07700
C125        C  0.21075507  0.17955973  0.17982478    -0.02200
C126        C  0.18173047  0.18106057  0.15793835     0.04600
N127        N  0.17450272  0.15524880  0.13192232     0.67100
H128        H  0.13882738  0.20950383  0.14262876     0.16000
H129        H  0.22556028  0.22662117  0.18158910     0.15700
N130        N  0.20828563  0.26267991  0.22785459     0.74800
O131        O  0.15912512  0.12967609  0.14246688    -0.38600
O132        O  0.17657244  0.16153438  0.09779184    -0.38600
O133        O  0.19232426  0.28685207  0.24166567    -0.39300
O134        O  0.23734478  0.25894724  0.23854078    -0.39300
C135        C  0.27677019  0.20384078  0.17802146    -0.11600
C136        C  0.27534189  0.16866731  0.17860130     0.05400
C137        C  0.30809749  0.15414265  0.17497849    -0.06900
C138        C  0.33642852  0.17609117  0.17616253    -0.07700
C139        C  0.33230620  0.21193216  0.17787475    -0.02200
C140        C  0.30224202  0.22152637  0.16353205     0.04600
N141        N  0.30026821  0.23052556  0.12532910     0.67100
H142        H  0.27138179  0.21362613  0.20491384     0.16000
H143        H  0.36072688  0.16522354  0.17490107     0.15700
N144        N  0.31386486  0.11878420  0.17014897     0.74800
O145        O  0.31031915  0.21034212  0.10068777    -0.38600
O146        O  0.28831664  0.25871673  0.11606348    -0.38600
O147        O  0.30863505  0.10586192  0.13893311    -0.39300
O148        O  0.33347009  0.10378863  0.19165741    -0.39300
C149        C  0.28478520  0.36625085  0.29651853    -0.11600
C150        C  0.25561568  0.35831394  0.31621551     0.05400
C151        C  0.22758680  0.36191799  0.29288420    -0.06900
C152        C  0.22968263  0.36734469  0.25473891    -0.07700
C153        C  0.25838245  0.36947656  0.23424999    -0.02200
C154        C  0.28659336  0.37218072  0.25731127     0.04600
N155        N  0.31727082  0.38192249  0.24203107     0.67100
H156        H  0.30696470  0.36771822  0.31131788     0.16000
H157        H  0.20676239  0.36942230  0.24199842     0.15700
N158        N  0.19514397  0.35901444  0.30480074     0.74800
O159        O  0.32552016  0.41229889  0.24464345    -0.38600
O160        O  0.33927933  0.35990976  0.23688127    -0.38600
O161        O  0.17715614  0.38511732  0.30509827    -0.39300
O162        O  0.18218577  0.33139063  0.29777578    -0.39300
C163        C  0.27796903  0.37398369  0.42012096    -0.11600
C164        C  0.26262738  0.37945837  0.38559599     0.05400
C165        C  0.24843936  0.41223153  0.38031202    -0.06900
C166        C  0.24917574  0.43629859  0.40900990    -0.07700
C167        C  0.26579829  0.43043188  0.44230615    -0.02200
C168        C  0.28248052  0.39933833  0.44679342     0.04600
N169        N  0.30381194  0.39243643  0.47773900     0.67100
H170        H  0.28766375  0.34927862  0.42643985     0.16000
H171        H  0.23685294  0.46037424  0.40494889     0.15700
N172        N  0.23303940  0.42234551  0.34657150     0.74800
O173        O  0.31237625  0.36245629  0.48490851    -0.38600
O174        O  0.31969757  0.41580788  0.49251389    -0.38600
O175        O  0.20421689  0.43396517  0.34798399    -0.39300
O176        O  0.25091897  0.43108332  0.31987816    -0.39300
C177        C  0.37811527  0.20855952  0.29238821    -0.11600
C178        C  0.37277522  0.23892383  0.31206647     0.05400
C179        C  0.37599223  0.26849843  0.28966593    -0.06900
C180        C  0.37816852  0.26602330  0.25082035    -0.07700
C181        C  0.37119620  0.23606331  0.23146255    -0.02200
C182        C  0.37438335  0.20608446  0.25374870     0.04600
N183        N  0.37382691  0.17251481  0.23971336     0.67100
H184        H  0.38070885  0.18522357  0.30766836     0.16000
H185        H  0.38110141  0.28922769  0.23547678     0.15700
N186        N  0.37669783  0.30177909  0.30408092     0.74800
O187        O  0.40059413  0.15795665  0.23249158    -0.38600
O188        O  0.35053827  0.15413965  0.24951022    -0.38600
O189        O  0.40365952  0.31391177  0.31363652    -0.39300
O190        O  0.35393041  0.32183126  0.29512558    -0.39300
C191        C  0.37712061  0.22470115  0.41987897    -0.11600
C192        C  0.38652106  0.23217532  0.38319023     0.05400
C193        C  0.42062531  0.23804517  0.37732276    -0.06900
C194        C  0.44236229  0.23804543  0.40738739    -0.07700
C195        C  0.43239419  0.23033207  0.44328743    -0.02200
C196        C  0.39940953  0.22202633  0.44943933     0.04600
N197        N  0.38794740  0.21047465  0.48492977     0.67100
H198        H  0.35213453  0.21849925  0.42522055     0.16000
H199        H  0.46779185  0.24386885  0.40245199     0.15700
N200        N  0.43466788  0.24386560  0.34170524     0.74800
O201        O  0.35866057  0.21274013  0.99483948    -0.38600
O202        O  0.40800223  0.19668932  0.00869334    -0.38600
O203        O  0.44992680  0.27084430  0.33650383    -0.39300
O204        O  0.44224914  0.21866024  0.32207934    -0.39300
C205        C  0.34524448  0.30036208  0.36987076    -0.11600
C206        C  0.33575807  0.26676177  0.36484355     0.05400
C207        C  0.30278783  0.26205424  0.37320691    -0.06900
C208        C  0.28021666  0.28645440  0.36176020    -0.07700
C209        C  0.28711400  0.32121928  0.36351846    -0.02200
C210        C  0.32191741  0.32773056  0.36955349     0.04600
N211        N  0.33513548  0.36057336  0.37614592     0.67100
H212        H  0.37089031  0.30568991  0.37317450     0.16000
H213        H  0.25645229  0.27739252  0.35592116     0.15700
N214        N  0.29534738  0.24334264  0.40594546     0.74800
O215        O  0.34508332  0.36677288  0.40840648    -0.38600
O216        O  0.34956504  0.37527081  0.35000125    -0.38600
O217        O  0.30571285  0.25368738  0.43672502    -0.39300
O218        O  0.27538310  0.21954133  0.40530138    -0.39300
C219        C  0.12944244  0.29400881  0.29723783    -0.11600
C220        C  0.13364104  0.26258657  0.31524745     0.05400
C221        C  0.12509135  0.23507746  0.29184151    -0.06900
C222        C  0.12511111  0.23863043  0.25241717    -0.07700
C223        C  0.12995616  0.26982429  0.23347623    -0.02200
C224        C  0.12577588  0.29796272  0.25790521     0.04600
N225        N  0.11232750  0.32919952  0.24488850     0.67100
H226        H  0.12685986  0.31614126  0.31379450     0.16000
H227        H  0.12172280  0.21610344  0.23652734     0.15700
N228        N  0.11615820  0.20328437  0.30730979     0.74800
O229        O  0.08879824  0.32905705  0.22242087    -0.38600
O230        O  0.12016935  0.35660201  0.25996787    -0.38600
O231        O  0.08964882  0.20081358  0.32481078    -0.39300
O232        O  0.13112942  0.17674124  0.29776345    -0.39300
C233        C  0.12544499  0.24167844  0.42190491    -0.11600
C234        C  0.11732420  0.25364425  0.38603460     0.05400
C235        C  0.08377640  0.26249269  0.37977463    -0.06900
C236        C  0.06065642  0.25850425  0.40821530    -0.07700
C237        C  0.06934751  0.24540055  0.44280004    -0.02200
C238        C  0.10197347  0.23644783  0.44936904     0.04600
N239        N  0.11191412  0.22305705  0.48434543     0.67100
H240        H  0.15039146  0.23532496  0.42880882     0.16000
H241        H  0.03552659  0.26617141  0.40329837     0.15700
N242        N  0.07250001  0.27818567  0.34647065     0.74800
O243        O  0.10930390  0.18696441  0.98608051    -0.38600
O244        O  0.12388395  0.23530279  0.00885489    -0.38600
O245        O  0.05615455  0.26109447  0.32389657    -0.39300
O246        O  0.06925198  0.30982629  0.34578096    -0.39300
C247        C  0.19143447  0.34541725  0.37440695    -0.11600
C248        C  0.22343271  0.33158479  0.37678421     0.05400
C249        C  0.22196825  0.30322465  0.40096389    -0.06900
C250        C  0.19640142  0.28007985  0.39613893    -0.07700
C251        C  0.16871970  0.28780913  0.37379118    -0.02200
C252        C  0.16354384  0.32362627  0.37246236     0.04600
N253        N  0.13151959  0.33825609  0.37579809     0.67100
H254        H  0.18810708  0.37236363  0.37208514     0.16000
H255        H  0.19804494  0.25640704  0.41078033     0.15700
N256        N  0.23954920  0.30220602  0.43524374     0.74800
O257        O  0.11314542  0.32854018  0.40160527    -0.38600
O258        O  0.12497674  0.36587403  0.35996428    -0.38600
O259        O  0.23816620  0.32790612  0.45571159    -0.39300
O260        O  0.24458836  0.27413327  0.45070493    -0.39300
C261        C  0.20888871  0.13749851  0.28546815    -0.11600
C262        C  0.23782593  0.12819027  0.30398831     0.05400
C263        C  0.26204362  0.11219471  0.28102066    -0.06900
C264        C  0.26068150  0.11625997  0.24184066    -0.07700
C265        C  0.23551170  0.13525265  0.22440340    -0.02200
C266        C  0.20691764  0.13934669  0.24676774     0.04600
N267        N  0.17497100  0.14244600  0.23128862     0.67100
H268        H  0.18720100  0.14406246  0.30073193     0.16000
H269        H  0.28083057  0.10684686  0.22576960     0.15700
N270        N  0.29013763  0.09562307  0.29649435     0.74800
O271        O  0.15787913  0.11640080  0.22900276    -0.38600
O272        O  0.16029274  0.17033822  0.23392791    -0.38600
O273        O  0.29083407  0.06388524  0.29762681    -0.39300
O274        O  0.31691628  0.11086455  0.29714749    -0.39300
C275        C  0.25123169  0.12573529  0.41088787    -0.11600
C276        C  0.24354508  0.11442687  0.37506554     0.05400
C277        C  0.23576643  0.07959964  0.37102330    -0.06900
C278        C  0.23824205  0.05807933  0.40192243    -0.07700
C279        C  0.25020647  0.06939377  0.43594540    -0.02200
C280        C  0.25866906  0.10349046  0.43963129     0.04600
N281        N  0.27713401  0.11577503  0.47044838     0.67100
H282        H  0.25562681  0.15229124  0.41507766     0.16000
H283        H  0.23102775  0.03202735  0.39922310     0.15700
N284        N  0.22298144  0.06563435  0.33757364     0.74800
O285        O  0.30035057  0.09806667  0.48311583    -0.38600
O286        O  0.27674213  0.14693658  0.47754201    -0.38600
O287        O  0.23476614  0.03816266  0.32561888    -0.39300
O288        O  0.19476853  0.07438302  0.32713645    -0.39300
C289        C  0.22446974  0.20434630  0.35141711    -0.11600
C290        C  0.21756744  0.17006870  0.35591575     0.05400
C291        C  0.18422202  0.16431855  0.36749491    -0.06900
C292        C  0.16120266  0.19185983  0.37095904    -0.07700
C293        C  0.16867951  0.22469909  0.35810061    -0.02200
C294        C  0.20015651  0.22782203  0.34434740     0.04600
N295        N  0.20321457  0.24554887  0.31133444     0.67100
H296        H  0.24795992  0.21387156  0.34596973     0.16000
H297        H  0.13681784  0.18660060  0.38068776     0.15700
N298        N  0.17253068  0.13126699  0.37500806     0.74800
O299        O  0.21693993  0.27366180  0.30935140    -0.38600
O300        O  0.19175409  0.23134755  0.28339029    -0.38600
O301        O  0.17724337  0.11879158  0.40666807    -0.39300
O302        O  0.14927807  0.12027465  0.35584188    -0.39300
C303        C  0.31130286  0.20627535  0.32461372    -0.11600
C304        C  0.33523731  0.20351697  0.35164989     0.05400
C305        C  0.33496568  0.17216432  0.37122879    -0.06900
C306        C  0.30693166  0.15089472  0.36857903    -0.07700
C307        C  0.28036002  0.15810357  0.34381438    -0.02200
C308        C  0.28832673  0.18222105  0.31708357     0.04600
N309        N  0.27327898  0.18338783  0.28198033     0.67100
H310        H  0.31035992  0.22877686  0.30947151     0.16000
H311        H  0.30734511  0.12787090  0.38443385     0.15700
N312        N  0.36295945  0.15979796  0.39084218     0.74800
O313        O  0.24825823  0.20128180  0.27650887    -0.38600
O314        O  0.28995280  0.17353608  0.25480456    -0.38600
O315        O  0.35950256  0.14619550  0.42213710    -0.39300
O316        O  0.38989478  0.15656317  0.37411369    -0.39300
C317        C  0.24325680  0.14105041  0.84764126    -0.01800
C318        C  0.14476916  0.25778504  0.85913076    -0.01800
C319        C  0.35793876  0.23464561  0.85524763    -0.01800
C320        C  0.25621775  0.34794922  0.86139259    -0.01800
C321        C  0.23848476  0.14977200  0.68737749    -0.01800
C322        C  0.14162245  0.26896565  0.69109142    -0.01800
C323        C  0.35691400  0.23812024  0.69246369    -0.01800
C324        C  0.25895535  0.35639879  0.69158909    -0.01800
O325        O  0.03397065  0.22056832  0.56326792    -0.71100
O326        O  0.47231767  0.20956503  0.98755317    -0.71400
O327        O  0.03660132  0.21621110  0.99020973    -0.71200
O328        O  0.46881249  0.21277814  0.56194263    -0.71200
O329        O  0.46242772  0.26719946  0.55926730    -0.71200
O330        O  0.02797891  0.27001871  0.98383342    -0.71200
O331        O  0.46440280  0.26368718  0.98356499    -0.71100
O332        O  0.02913779  0.27474926  0.55708824    -0.71300
V333        V  0.00314133  0.21592616  0.52381631     1.35200
V334        V  0.49550654  0.26821122  0.52277677     1.35200
C335        C  0.04164466  0.24975261  0.57406638     0.78100
C336        C  0.45722919  0.23433624  0.97312457     0.78200
C337        C  0.04331044  0.24361920  0.97413179     0.78000
C338        C  0.45452323  0.23932838  0.57311121     0.78000
O339        O  0.28772541  0.47149442  0.98654471    -0.71100
O340        O  0.27275616  0.04242486  0.55595853    -0.71400
O341        O  0.28203822  0.47392385  0.56238161    -0.71200
O342        O  0.28189943  0.03247811  0.97984338    -0.71200
O343        O  0.22904663  0.02949593  0.98045709    -0.71200
O344        O  0.22994044  0.46539599  0.55792306    -0.71200
O345        O  0.22036225  0.03468540  0.55470028    -0.71100
O346        O  0.23517287  0.46735810  0.98218660    -0.71300
V347        V  0.27837931  0.50538120  0.52257243     1.35200
V348        V  0.22806967  0.49860389  0.51959213     1.35200
C349        C  0.26328146  0.45756830  0.97193275     0.78100
C350        C  0.24449107  0.05043940  0.56739545     0.78200
C351        C  0.25691075  0.45885608  0.57365324     0.78000
C352        C  0.25468717  0.04177391  0.96671958     0.78000
C353        C  0.26056826  0.44438194  0.64110825    -0.11600
C354        C  0.25913767  0.43377027  0.60407430     0.05400
C355        C  0.26045267  0.39912371  0.59649871    -0.06900
C356        C  0.26221259  0.37601797  0.62560152    -0.07700
C357        C  0.26222814  0.38571896  0.66326695    -0.02200
C358        C  0.26159267  0.42106365  0.67077901     0.04600
N359        N  0.25974688  0.43431162  0.70752599     0.67100
H360        H  0.25958901  0.47111988  0.64714348     0.16000
H361        H  0.26282075  0.34953772  0.61849227     0.15700
N362        N  0.26030731  0.38661521  0.55935787     0.74800
O363        O  0.28100801  0.45497622  0.71777351    -0.38600
O364        O  0.23265711  0.43434924  0.72417509    -0.38600
O365        O  0.27962360  0.36290012  0.55054099    -0.39300
O366        O  0.23691939  0.39404881  0.53808082    -0.39300
C367        C  0.37605791  0.24899118  0.62662507    -0.11600
C368        C  0.38467404  0.23812849  0.66265258     0.05400
C369        C  0.41780616  0.22614413  0.66726592    -0.06900
C370        C  0.43871160  0.22413500  0.63645435    -0.07700
C371        C  0.42992622  0.23796183  0.60249284    -0.02200
C372        C  0.39900740  0.25277321  0.59851568     0.04600
N373        N  0.39140628  0.27444544  0.56797655     0.67100
H374        H  0.35168730  0.25765666  0.62058913     0.16000
H375        H  0.46334412  0.21435460  0.63994828     0.15700
N376        N  0.43229005  0.21754911  0.70211124     0.74800
O377        O  0.39282518  0.26362763  0.53527278    -0.38600
O378        O  0.38701985  0.30556051  0.57358530    -0.38600
O379        O  0.44897985  0.19061459  0.70415828    -0.39300
O380        O  0.43959700  0.24119387  0.72371963    -0.38900
C381        C  0.34098746  0.30230165  0.66983115    -0.11600
C382        C  0.33570660  0.27354248  0.69278413     0.05400
C383        C  0.30918488  0.27854432  0.71782670    -0.06900
C384        C  0.28569739  0.30350797  0.71292305    -0.07700
C385        C  0.28830430  0.32988559  0.68833072    -0.02200
C386        C  0.31816842  0.33006715  0.66732464     0.04600
N387        N  0.32767325  0.35858429  0.64586745     0.67100
H388        H  0.36367095  0.30473345  0.65494487     0.16000
H389        H  0.26581720  0.30451362  0.73225551     0.15700
N390        N  0.30688566  0.26103082  0.75158674     0.74800
O391        O  0.33435642  0.38585147  0.66188413    -0.38600
O392        O  0.33619949  0.35448357  0.61258984    -0.38600
O393        O  0.30856543  0.22969348  0.75125555    -0.39300
O394        O  0.29759945  0.27635257  0.78048014    -0.39300
C395        C  0.08278964  0.28468309  0.60595768    -0.11600
C396        C  0.06475338  0.25522019  0.60553596     0.05400
C397        C  0.06800200  0.23323131  0.63601325    -0.06900
C398        C  0.08990022  0.24054762  0.66497915    -0.07700
C399        C  0.11158394  0.26804476  0.66344375    -0.02200
C400        C  0.10537963  0.29170492  0.63391973     0.04600
N401        N  0.11970134  0.32417956  0.63175641     0.67100
H402        H  0.07950669  0.30289298  0.58387159     0.16000
H403        H  0.09184037  0.22247059  0.68710985     0.15700
N404        N  0.04954493  0.20305925  0.63801248     0.74800
O405        O  0.14091282  0.32943294  0.60711387    -0.38600
O406        O  0.10367123  0.34903920  0.64437647    -0.38600
O407        O  0.06226039  0.17569575  0.62702005    -0.39300
O408        O  0.02418986  0.20242763  0.65783551    -0.39300
C409        C  0.22527857  0.30672581  0.66122954    -0.11600
C410        C  0.22546962  0.33828151  0.67941294     0.05400
C411        C  0.19340772  0.35300622  0.68232699    -0.06900
C412        C  0.16626502  0.33162046  0.68747020    -0.07700
C413        C  0.16745099  0.29720179  0.67750887    -0.02200
C414        C  0.19586344  0.28898649  0.65541122     0.04600
N415        N  0.19496384  0.26367839  0.62690222     0.67100
H416        H  0.24754962  0.29675820  0.64934820     0.16000
H417        H  0.14379483  0.34315541  0.69568226     0.15700
N418        N  0.18819398  0.38874737  0.68449517     0.74800
O419        O  0.16958431  0.26045068  0.60760347    -0.38600
O420        O  0.22070492  0.24830670  0.61700293    -0.38600
O421        O  0.19208589  0.40607734  0.65562866    -0.39300
O422        O  0.17082895  0.40091737  0.71026872    -0.39300
C423        C  0.24336452  0.13298630  0.62057842    -0.11600
C424        C  0.23542387  0.12257440  0.65674879     0.05400
C425        C  0.22699486  0.08779310  0.66141502    -0.06900
C426        C  0.22935953  0.06543372  0.63142441    -0.07700
C427        C  0.23991069  0.07595421  0.59673748    -0.02200
C428        C  0.24635686  0.11016564  0.59129733     0.04600
N429        N  0.25671162  0.12236403  0.55636112     0.67100
H430        H  0.24874547  0.15919157  0.61519547     0.16000
H431        H  0.22336039  0.03917742  0.63557935     0.15700
N432        N  0.21403269  0.07410079  0.69480038     0.74800
O433        O  0.23621636  0.13804762  0.53658132    -0.38600
O434        O  0.28676877  0.12730382  0.55153795    -0.38600
O435        O  0.18414510  0.06691655  0.69504463    -0.39300
O436        O  0.23290763  0.05675840  0.71499489    -0.39300
C437        C  0.15838984  0.20767657  0.66391141    -0.11600
C438        C  0.16322536  0.23556869  0.68896092     0.05400
C439        C  0.19260270  0.23383233  0.70997216    -0.06900
C440        C  0.21415811  0.20796529  0.70225208    -0.07700
C441        C  0.21005097  0.17844613  0.68267698    -0.02200
C442        C  0.18091529  0.17950695  0.66090854     0.04600
N443        N  0.17346771  0.15331250  0.63541900     0.67100
H444        H  0.13827469  0.20773870  0.64485269     0.16000
H445        H  0.22567333  0.22550244  0.68365251     0.15700
N446        N  0.20737855  0.26182474  0.72990932     0.74800
O447        O  0.15830239  0.12783273  0.64662017    -0.38600
O448        O  0.17483082  0.15927961  0.60116985    -0.38600
O449        O  0.19130268  0.28615155  0.74323921    -0.39300
O450        O  0.23620653  0.25794639  0.74137316    -0.39300
C451        C  0.27651696  0.20200838  0.68196522    -0.11600
C452        C  0.27461692  0.16692330  0.68195733     0.05400
C453        C  0.30715076  0.15201882  0.67769323    -0.06900
C454        C  0.33575415  0.17365363  0.67843451    -0.07700
C455        C  0.33202134  0.20958190  0.68024723    -0.02200
C456        C  0.30177442  0.21942216  0.66662932     0.04600
N457        N  0.29916789  0.22780243  0.62829518     0.67100
H458        H  0.27092472  0.21193996  0.70874700     0.16000
H459        H  0.35988570  0.16250294  0.67654274     0.15700
N460        N  0.31239989  0.11659123  0.67276104     0.74800
O461        O  0.30725519  0.20658441  0.60380371    -0.38600
O462        O  0.28864735  0.25650746  0.61877361    -0.38600
O463        O  0.30614410  0.10361535  0.64181874    -0.39300
O464        O  0.33217118  0.10130788  0.69383496    -0.39300
C465        C  0.28408049  0.36614999  0.79776137    -0.11600
C466        C  0.25504764  0.35783962  0.81754062     0.05400
C467        C  0.22719387  0.35954080  0.79390575    -0.06900
C468        C  0.22956978  0.36204304  0.75552758    -0.07700
C469        C  0.25812464  0.36623341  0.73512122    -0.02200
C470        C  0.28601352  0.37091494  0.75832728     0.04600
N471        N  0.31683554  0.37997575  0.74291654     0.67100
H472        H  0.30603312  0.36887911  0.81271689     0.16000
H473        H  0.20677465  0.36005036  0.74285141     0.15700
N474        N  0.19454987  0.35967102  0.80592341     0.74800
O475        O  0.32583817  0.41009470  0.74574302    -0.38600
O476        O  0.33837959  0.35742432  0.73806619    -0.38600
O477        O  0.17889226  0.38728708  0.80567464    -0.39300
O478        O  0.17914146  0.33346498  0.79882547    -0.39300
C479        C  0.27836430  0.37479022  0.92069515    -0.11600
C480        C  0.26208276  0.37963096  0.88659882     0.05400
C481        C  0.24743347  0.41224220  0.88134774    -0.06900
C482        C  0.24880463  0.43671624  0.90958391    -0.07700
C483        C  0.26652560  0.43158512  0.94224402    -0.02200
C484        C  0.28357341  0.40068726  0.94661258     0.04600
N485        N  0.30618806  0.39466594  0.97654413     0.67100
H486        H  0.28834287  0.35024466  0.92720091     0.16000
H487        H  0.23619302  0.46064271  0.90556373     0.15700
N488        N  0.23093795  0.42190332  0.84811339     0.74800
O489        O  0.31443515  0.36484567  0.98486575    -0.38600
O490        O  0.32359890  0.41822714  0.98843815    -0.38600
O491        O  0.20256871  0.43454903  0.85077285    -0.39300
O492        O  0.24795543  0.42967560  0.82034754    -0.39300
C493        C  0.37625001  0.20650106  0.79429255    -0.11600
C494        C  0.37166337  0.23714923  0.81374789     0.05400
C495        C  0.37620750  0.26651302  0.79140086    -0.06900
C496        C  0.37832400  0.26388529  0.75256222    -0.07700
C497        C  0.37131027  0.23387618  0.73324609    -0.02200
C498        C  0.37378513  0.20398049  0.75555775     0.04600
N499        N  0.37379580  0.17049419  0.74123342     0.67100
H500        H  0.37812829  0.18317116  0.80970795     0.16000
H501        H  0.38173954  0.28694925  0.73709848     0.15700
N502        N  0.37881038  0.29963613  0.80597752     0.74800
O503        O  0.40033524  0.15753419  0.73029297    -0.38600
O504        O  0.35195593  0.15082056  0.75229671    -0.38600
O505        O  0.40616903  0.30958754  0.81708623    -0.39300
O506        O  0.35781035  0.32141763  0.79634621    -0.39300
C507        C  0.37694329  0.22500074  0.92156571    -0.11600
C508        C  0.38599924  0.23129751  0.88451027     0.05400
C509        C  0.42025428  0.23566879  0.87772159    -0.06900
C510        C  0.44235024  0.23616115  0.90734944    -0.07700
C511        C  0.43269054  0.22975759  0.94359969    -0.02200
C512        C  0.39965699  0.22226576  0.95069046     0.04600
N513        N  0.38863121  0.21127181  0.98659823     0.67100
H514        H  0.35188298  0.21959432  0.92751576     0.16000
H515        H  0.46788693  0.24100096  0.90176422     0.15700
N516        N  0.43426968  0.23849576  0.84160964     0.74800
O517        O  0.35794005  0.21231434  0.49292599    -0.38600
O518        O  0.40698045  0.19531159  0.50693780    -0.38600
O519        O  0.45145580  0.26382889  0.83451426    -0.39300
O520        O  0.44005608  0.21173332  0.82381496    -0.39300
C521        C  0.34465128  0.29982126  0.87049827    -0.11600
C522        C  0.33502903  0.26617540  0.86625375     0.05400
C523        C  0.30201051  0.26184284  0.87491160    -0.06900
C524        C  0.27948747  0.28626316  0.86323708    -0.07700
C525        C  0.28651300  0.32101153  0.86482486    -0.02200
C526        C  0.32147295  0.32734487  0.87012857     0.04600
N527        N  0.33505785  0.36012614  0.87614722     0.67100
H528        H  0.37029551  0.30504177  0.87387639     0.16000
H529        H  0.25570146  0.27727750  0.85700493     0.15700
N530        N  0.29456375  0.24343402  0.90786297     0.74800
O531        O  0.34513998  0.36660378  0.90828101    -0.38600
O532        O  0.34987750  0.37409318  0.84979328    -0.38600
O533        O  0.30493770  0.25406469  0.93851770    -0.39300
O534        O  0.27445271  0.21975692  0.90752568    -0.39300
C535        C  0.12823142  0.29356082  0.79814433    -0.11600
C536        C  0.13255936  0.26226387  0.81643003     0.05400
C537        C  0.12387118  0.23465199  0.79322088    -0.06900
C538        C  0.12389964  0.23794175  0.75371064    -0.07700
C539        C  0.12904682  0.26897610  0.73450843    -0.02200
C540        C  0.12471841  0.29726656  0.75868763     0.04600
N541        N  0.11108772  0.32829039  0.74523837     0.67100
H542        H  0.12518992  0.31569068  0.81464723     0.16000
H543        H  0.12006326  0.21542239  0.73790663     0.15700
N544        N  0.11409300  0.20326805  0.80904438     0.74800
O545        O  0.08821161  0.32774556  0.72193305    -0.38600
O546        O  0.11810367  0.35584968  0.76051806    -0.38600
O547        O  0.08745550  0.20171125  0.82644982    -0.39300
O548        O  0.12842836  0.17622408  0.79997054    -0.39300
C549        C  0.12408924  0.24078128  0.92304012    -0.11600
C550        C  0.11618554  0.25370606  0.88747840     0.05400
C551        C  0.08280448  0.26351916  0.88165893    -0.06900
C552        C  0.05972006  0.25972050  0.91025127    -0.07700
C553        C  0.06809641  0.24523217  0.94432300    -0.02200
C554        C  0.10045760  0.23486106  0.95019315     0.04600
N555        N  0.10989455  0.21867674  0.98391172     0.67100
H556        H  0.14893703  0.23380920  0.92976760     0.16000
H557        H  0.03479930  0.26829355  0.90571851     0.15700
N558        N  0.07167349  0.27968483  0.84855134     0.74800
O559        O  0.11298717  0.19157099  0.48908167    -0.38600
O560        O  0.12466471  0.24211721  0.50801379    -0.38600
O561        O  0.05571665  0.26279772  0.82543679    -0.39300
O562        O  0.06801504  0.31128931  0.84849937    -0.39300
C563        C  0.19074363  0.34524518  0.87531155    -0.11600
C564        C  0.22273278  0.33143842  0.87802301     0.05400
C565        C  0.22107892  0.30305970  0.90222320    -0.06900
C566        C  0.19527649  0.28005853  0.89757397    -0.07700
C567        C  0.16771834  0.28773167  0.87501116    -0.02200
C568        C  0.16277255  0.32355448  0.87332679     0.04600
N569        N  0.13084000  0.33838760  0.87653601     0.67100
H570        H  0.18744388  0.37218505  0.87294671     0.16000
H571        H  0.19663252  0.25648572  0.91244282     0.15700
N572        N  0.23920623  0.30162346  0.93613417     0.74800
O573        O  0.11264882  0.32929394  0.90279078    -0.38600
O574        O  0.12443511  0.36584917  0.86030619    -0.38600
O575        O  0.23955181  0.32763091  0.95612199    -0.39300
O576        O  0.24322666  0.27356770  0.95199062    -0.39300
C577        C  0.20759942  0.13653714  0.78866659    -0.11600
C578        C  0.23653427  0.12739564  0.80723891     0.05400
C579        C  0.26082570  0.11127927  0.78447593    -0.06900
C580        C  0.25960074  0.11530144  0.74532531    -0.07700
C581        C  0.23445864  0.13422451  0.72778028    -0.02200
C582        C  0.20581264  0.13846831  0.74998113     0.04600
N583        N  0.17405266  0.14259469  0.73434246     0.67100
H584        H  0.18586297  0.14317505  0.80382144     0.16000
H585        H  0.27990723  0.10603240  0.72937958     0.15700
N586        N  0.28903280  0.09501592  0.80012828     0.74800
O587        O  0.15661864  0.11696328  0.73043278    -0.38600
O588        O  0.15983858  0.17065229  0.73786043    -0.38600
O589        O  0.28985753  0.06330427  0.80188169    -0.39300
O590        O  0.31576252  0.11035703  0.80042185    -0.39300
C591        C  0.25092167  0.12359617  0.91359916    -0.11600
C592        C  0.24224403  0.11330243  0.87776353     0.05400
C593        C  0.23427573  0.07862733  0.87289957    -0.06900
C594        C  0.23839070  0.05610594  0.90265738    -0.07700
C595        C  0.25255484  0.06626399  0.93602248    -0.02200
C596        C  0.26106309  0.10038765  0.94045547     0.04600
N597        N  0.28236241  0.11180284  0.96943383     0.67100
H598        H  0.25489103  0.15013046  0.91851260     0.16000
H599        H  0.23084453  0.03020464  0.89948491     0.15700
N600        N  0.21932408  0.06593678  0.84002228     0.74800
O601        O  0.30421328  0.09232290  0.98207293    -0.38600
O602        O  0.28542486  0.14302750  0.97491419    -0.38600
O603        O  0.23158324  0.04027022  0.82444798    -0.39300
O604        O  0.18980975  0.07321127  0.83370598    -0.39300
C605        C  0.22334799  0.20371511  0.85410324    -0.11600
C606        C  0.21629814  0.16949926  0.85899484     0.05400
C607        C  0.18274939  0.16405861  0.86997959    -0.06900
C608        C  0.15975500  0.19171330  0.87244311    -0.07700
C609        C  0.16754242  0.22448395  0.85960543    -0.02200
C610        C  0.19928120  0.22730343  0.84638893     0.04600
N611        N  0.20311758  0.24459509  0.81319786     0.67100
H612        H  0.24690345  0.21308532  0.84879912     0.16000
H613        H  0.13518416  0.18659109  0.88164084     0.15700
N614        N  0.17074351  0.13120051  0.87780801     0.74800
O615        O  0.21312378  0.27442186  0.81193218    -0.38600
O616        O  0.19084112  0.23063530  0.78554967    -0.38600
O617        O  0.17661280  0.11827390  0.90900211    -0.39300
O618        O  0.14641978  0.12092882  0.85988586    -0.39300
C619        C  0.30996511  0.20545976  0.82752608    -0.11600
C620        C  0.33409010  0.20277207  0.85432628     0.05400
C621        C  0.33374129  0.17163813  0.87430490    -0.06900
C622        C  0.30576712  0.15027387  0.87169315    -0.07700
C623        C  0.27911602  0.15733299  0.84694507    -0.02200
C624        C  0.28713863  0.18131292  0.82010124     0.04600
N625        N  0.27277447  0.18192318  0.78466455     0.67100
H626        H  0.30875096  0.22791672  0.81230620     0.16000
H627        H  0.30644623  0.12722547  0.88745027     0.15700
N628        N  0.36150570  0.15964765  0.89456959     0.74800
O629        O  0.24792358  0.19986746  0.77832754    -0.38600
O630        O  0.29020978  0.17194116  0.75811053    -0.38600
O631        O  0.35771599  0.14699304  0.92629317    -0.39300
O632        O  0.38852544  0.15570349  0.87818647    -0.39300
C633        C  0.24247100  0.64184488  0.34621182    -0.01800
C634        C  0.14396737  0.75827337  0.36057239    -0.01800
C635        C  0.35803303  0.73424868  0.35386993    -0.01800
C636        C  0.25620113  0.84693607  0.36275175    -0.01800
C637        C  0.23906143  0.65230670  0.18604302    -0.01800
C638        C  0.14232106  0.77185592  0.19284128    -0.01800
C639        C  0.35741975  0.74060595  0.19097585    -0.01800
C640        C  0.25966953  0.85925476  0.19399594    -0.01800
O641        O  0.03696271  0.72368233  0.06404763    -0.71100
O642        O  0.47180764  0.70712342  0.48668522    -0.71400
O643        O  0.03443603  0.71545214  0.48992236    -0.71200
O644        O  0.47078031  0.71553613  0.06155919    -0.71200
O645        O  0.46477491  0.76991315  0.05773036    -0.71200
O646        O  0.02534383  0.76914579  0.48316267    -0.71200
O647        O  0.46215341  0.76100353  0.48322824    -0.71100
O648        O  0.03096265  0.77779654  0.05825561    -0.71300
V649        V  0.00637769  0.71849654  0.02462334     1.35200
V650        V  0.49843989  0.77002669  0.02164849     1.35200
C651        C  0.04381313  0.75297215  0.07516589     0.78100
C652        C  0.45624028  0.73153558  0.47218981     0.78200
C653        C  0.04120985  0.74291635  0.47398030     0.78000
C654        C  0.45643991  0.74234103  0.07203438     0.78000
O655        O  0.28485719  0.96976054  0.48808386    -0.71100
O656        O  0.27627520  0.54404943  0.05533819    -0.71400
O657        O  0.28632436  0.97494585  0.06399558    -0.71200
O658        O  0.27706371  0.53701543  0.48320801    -0.71200
O659        O  0.22448190  0.53148209  0.48117001    -0.71200
O660        O  0.23446239  0.96534774  0.05868913    -0.71200
O661        O  0.22382399  0.53682795  0.05371646    -0.71100
O662        O  0.23235795  0.96635405  0.48193709    -0.71300
V663        V  0.28309042  0.00353777  0.02166149     1.35200
V664        V  0.23269687  0.99745461  0.01947409     1.35200
C665        C  0.26064044  0.95621535  0.47273265     0.78100
C666        C  0.24796150  0.55252206  0.06639187     0.78200
C667        C  0.26110982  0.96024337  0.07558880     0.78000
C668        C  0.25003754  0.54522621  0.46888914     0.78000
C669        C  0.26265536  0.94722712  0.14378274    -0.11600
C670        C  0.26288954  0.93624528  0.10685435     0.05400
C671        C  0.26429188  0.90175835  0.09971314    -0.06900
C672        C  0.26383641  0.87873868  0.12857573    -0.07700
C673        C  0.26302070  0.88859955  0.16606352    -0.02200
C674        C  0.26270541  0.92398229  0.17356938     0.04600
N675        N  0.26054499  0.93728455  0.21027108     0.67100
H676        H  0.26153375  0.97400695  0.14954391     0.16000
H677        H  0.26487026  0.85228783  0.12131757     0.15700
N678        N  0.26996774  0.88949625  0.06331896     0.74800
O679        O  0.28169106  0.95799559  0.22073058    -0.38600
O680        O  0.23338165  0.93712693  0.22675176    -0.38600
O681        O  0.29785001  0.87739542  0.05609365    -0.39300
O682        O  0.24607444  0.88202097  0.04311683    -0.39300
C683        C  0.37750653  0.75358944  0.12548296    -0.11600
C684        C  0.38539159  0.74110204  0.16116334     0.05400
C685        C  0.41801989  0.72754305  0.16534981    -0.06900
C686        C  0.43928204  0.72620854  0.13478465    -0.07700
C687        C  0.43142087  0.74149733  0.10130844    -0.02200
C688        C  0.40088398  0.75735375  0.09760320     0.04600
N689        N  0.39394898  0.77949605  0.06728587     0.67100
H690        H  0.35332475  0.76293256  0.11944953     0.16000
H691        H  0.46345981  0.71522077  0.13812290     0.15700
N692        N  0.43150504  0.71574856  0.19955614     0.74800
O693        O  0.39452083  0.76875813  0.03451517    -0.38600
O694        O  0.39082656  0.81072038  0.07311428    -0.38600
O695        O  0.44654782  0.68775087  0.19949404    -0.39300
O696        O  0.44000376  0.73733810  0.22310396    -0.38900
C697        C  0.34174937  0.80549550  0.17068713    -0.11600
C698        C  0.33622439  0.77605354  0.19240738     0.05400
C699        C  0.30971985  0.78056053  0.21763831    -0.06900
C700        C  0.28631546  0.80578039  0.21364838    -0.07700
C701        C  0.28910554  0.83282671  0.19007734    -0.02200
C702        C  0.31920977  0.83360044  0.16938873     0.04600
N703        N  0.32938927  0.86299146  0.14976686     0.67100
H704        H  0.36457509  0.80825995  0.15616973     0.16000
H705        H  0.26642505  0.80648584  0.23303336     0.15700
N706        N  0.30769914  0.76261497  0.25109891     0.74800
O707        O  0.33430820  0.88996243  0.16719683    -0.38600
O708        O  0.34053016  0.85997909  0.11735314    -0.38600
O709        O  0.30903116  0.73128357  0.25017283    -0.39300
O710        O  0.29888787  0.77763599  0.28037120    -0.39300
C711        C  0.08295941  0.78886187  0.10891879    -0.11600
C712        C  0.06617499  0.75864431  0.10712404     0.05400
C713        C  0.06968332  0.73598056  0.13693425    -0.06900
C714        C  0.09105743  0.74317731  0.16632737    -0.07700
C715        C  0.11201941  0.77125669  0.16573438    -0.02200
C716        C  0.10492204  0.79585588  0.13749920     0.04600
N717        N  0.11701944  0.82935027  0.13791089     0.67100
H718        H  0.07900710  0.80774166  0.08766009     0.16000
H719        H  0.09340303  0.72448988  0.18777184     0.15700
N720        N  0.05210133  0.70520248  0.13775784     0.74800
O721        O  0.13713958  0.83790318  0.11326162    -0.38600
O722        O  0.09971045  0.85202311  0.15307603    -0.38600
O723        O  0.06599603  0.67834132  0.12706502    -0.39300
O724        O  0.02606213  0.70360270  0.15630779    -0.39300
C725        C  0.22569457  0.80996729  0.16315148    -0.11600
C726        C  0.22607885  0.84127735  0.18185644     0.05400
C727        C  0.19407614  0.85601974  0.18503829    -0.06900
C728        C  0.16693743  0.83466052  0.19026439    -0.07700
C729        C  0.16789531  0.80042551  0.17949207    -0.02200
C730        C  0.19614235  0.79252170  0.15706455     0.04600
N731        N  0.19482748  0.76800751  0.12779751     0.67100
H732        H  0.24785415  0.80007763  0.15095823     0.16000
H733        H  0.14457795  0.84621521  0.19879248     0.15700
N734        N  0.18867342  0.89183265  0.18509015     0.74800
O735        O  0.16933497  0.76572517  0.10849172    -0.38600
O736        O  0.22033594  0.75251239  0.11735498    -0.38600
O737        O  0.19397794  0.90801270  0.15570259    -0.39300
O738        O  0.17005323  0.90501686  0.20909894    -0.39300
C739        C  0.24330734  0.63561186  0.11901009    -0.11600
C740        C  0.23619624  0.62500374  0.15535352     0.05400
C741        C  0.23000425  0.58967567  0.16032454    -0.06900
C742        C  0.23343129  0.56730947  0.13049525    -0.07700
C743        C  0.24304812  0.57816127  0.09562172    -0.02200
C744        C  0.24741713  0.61274161  0.08982833     0.04600
N745        N  0.25717452  0.62526589  0.05480815     0.67100
H746        H  0.24737869  0.66206245  0.11347672     0.16000
H747        H  0.22905079  0.54072755  0.13495059     0.15700
N748        N  0.21909528  0.57503597  0.19416936     0.74800
O749        O  0.23538289  0.63582686  0.03291554    -0.38600
O750        O  0.28599529  0.63559873  0.05128500    -0.38600
O751        O  0.18932340  0.56771195  0.19652065    -0.39300
O752        O  0.23921125  0.55719451  0.21224369    -0.39300
C753        C  0.15926297  0.71110675  0.16390208    -0.11600
C754        C  0.16403792  0.73844602  0.18977279     0.05400
C755        C  0.19350684  0.73618261  0.21063172    -0.06900
C756        C  0.21479705  0.70998759  0.20278209    -0.07700
C757        C  0.21063325  0.68105251  0.18214981    -0.02200
C758        C  0.18161317  0.68281350  0.16028583     0.04600
N759        N  0.17391507  0.65697357  0.13445211     0.67100
H760        H  0.13932336  0.71169783  0.14462658     0.16000
H761        H  0.22553758  0.72819010  0.18430156     0.15700
N762        N  0.20847555  0.76379199  0.23102507     0.74800
O763        O  0.16001144  0.63071819  0.14563342    -0.38600
O764        O  0.17406184  0.66361141  0.10032068    -0.38600
O765        O  0.19258445  0.78821201  0.24440531    -0.39300
O766        O  0.23721662  0.75950132  0.24261394    -0.39300
C767        C  0.27667041  0.70504931  0.17909000    -0.11600
C768        C  0.27503128  0.66982684  0.18013276     0.05400
C769        C  0.30751879  0.65497653  0.17558162    -0.06900
C770        C  0.33609666  0.67658327  0.17587789    -0.07700
C771        C  0.33246703  0.71243785  0.17800486    -0.02200
C772        C  0.30227196  0.72252361  0.16445114     0.04600
N773        N  0.29988911  0.73273098  0.12664746     0.67100
H774        H  0.27158932  0.71523900  0.20589760     0.16000
H775        H  0.36024097  0.66542571  0.17391556     0.15700
N776        N  0.31274166  0.61955208  0.17060805     0.74800
O777        O  0.30767800  0.71250841  0.10105852    -0.38600
O778        O  0.28916389  0.76174728  0.11865926    -0.38600
O779        O  0.30690845  0.60677829  0.13945780    -0.39300
O780        O  0.33241168  0.60421995  0.19175521    -0.39300
C781        C  0.28478132  0.86493803  0.29974270    -0.11600
C782        C  0.25542218  0.85702900  0.31903911     0.05400
C783        C  0.22756848  0.86099344  0.29556228    -0.06900
C784        C  0.23015714  0.86666373  0.25762257    -0.07700
C785        C  0.25897022  0.86891268  0.23742655    -0.02200
C786        C  0.28697759  0.87124806  0.26073906     0.04600
N787        N  0.31774748  0.88114160  0.24594566     0.67100
H788        H  0.30698487  0.86624219  0.31481152     0.16000
H789        H  0.20670289  0.86923250  0.24421442     0.15700
N790        N  0.19498067  0.85873813  0.30725812     0.74800
O791        O  0.32585241  0.91154960  0.24874397    -0.38600
O792        O  0.33986248  0.85921017  0.24098825    -0.38600
O793        O  0.17732551  0.88508781  0.30697317    -0.39300
O794        O  0.18164270  0.83125614  0.30057392    -0.39300
C795        C  0.27718287  0.87361778  0.42239513    -0.11600
C796        C  0.26186671  0.87858944  0.38776884     0.05400
C797        C  0.24755647  0.91127203  0.38183187    -0.06900
C798        C  0.24806362  0.93565794  0.41005616    -0.07700
C799        C  0.26455632  0.93028679  0.44339806    -0.02200
C800        C  0.28137739  0.89940974  0.44857934     0.04600
N801        N  0.30264060  0.89335624  0.47972562     0.67100
H802        H  0.28718352  0.84911688  0.42911280     0.16000
H803        H  0.23577388  0.95968390  0.40550775     0.15700
N804        N  0.23242472  0.92117385  0.34786127     0.74800
O805        O  0.30903363  0.86352187  0.48976958    -0.38600
O806        O  0.32086606  0.91641514  0.49123494    -0.38600
O807        O  0.20382765  0.93342174  0.34909501    -0.39300
O808        O  0.25057955  0.92963718  0.32129931    -0.39300
C809        C  0.37612448  0.70717884  0.29242038    -0.11600
C810        C  0.37164414  0.73749685  0.31238513     0.05400
C811        C  0.37666877  0.76714148  0.29060056    -0.06900
C812        C  0.37920974  0.76504813  0.25168317    -0.07700
C813        C  0.37171455  0.73545810  0.23176448    -0.02200
C814        C  0.37358636  0.70522701  0.25370108     0.04600
N815        N  0.37242677  0.67186421  0.23922250     0.67100
H816        H  0.37774952  0.68359913  0.30736926     0.16000
H817        H  0.38294382  0.78830025  0.23666955     0.15700
N818        N  0.37910219  0.80003048  0.30581907     0.74800
O819        O  0.39882592  0.65722505  0.23058074    -0.38600
O820        O  0.34907859  0.65360794  0.24918855    -0.38600
O821        O  0.40669579  0.81051257  0.31547367    -0.39300
O822        O  0.35730465  0.82144788  0.29761954    -0.39300
C823        C  0.37704976  0.72174075  0.41946475    -0.11600
C824        C  0.38608998  0.72999476  0.38289626     0.05400
C825        C  0.42025698  0.73528741  0.37649981    -0.06900
C826        C  0.44216517  0.73506868  0.40631384    -0.07700
C827        C  0.43247907  0.72659226  0.44203930    -0.02200
C828        C  0.39974113  0.71757895  0.44833592     0.04600
N829        N  0.38905397  0.70348293  0.48304175     0.67100
H830        H  0.35207886  0.71569759  0.42503757     0.16000
H831        H  0.46755778  0.74100697  0.40129383     0.15700
N832        N  0.43433494  0.73992403  0.34064550     0.74800
O833        O  0.35956394  0.71778293  0.99094277    -0.38600
O834        O  0.40791556  0.69998415  0.00676370    -0.38600
O835        O  0.45169409  0.76546742  0.33521960    -0.39300
O836        O  0.44001255  0.71411235  0.32119584    -0.39300
C837        C  0.34487463  0.79923288  0.37069054    -0.11600
C838        C  0.33534693  0.76558316  0.36606111     0.05400
C839        C  0.30258032  0.76096432  0.37567245    -0.06900
C840        C  0.27963689  0.78529876  0.36510100    -0.07700
C841        C  0.28651213  0.82006407  0.36646707    -0.02200
C842        C  0.32146158  0.82657217  0.37151923     0.04600
N843        N  0.33469903  0.85929001  0.37880644     0.67100
H844        H  0.37054561  0.80458931  0.37357188     0.16000
H845        H  0.25581982  0.77605275  0.36009020     0.15700
N846        N  0.29577717  0.74159341  0.40811565     0.74800
O847        O  0.34422907  0.86505228  0.41133137    -0.38600
O848        O  0.34956480  0.87422598  0.35313952    -0.38600
O849        O  0.30657528  0.75153964  0.43886412    -0.39300
O850        O  0.27487386  0.71866032  0.40760752    -0.39300
C851        C  0.12837238  0.79496792  0.30010757    -0.11600
C852        C  0.13204420  0.76339280  0.31791801     0.05400
C853        C  0.12362184  0.73614079  0.29406285    -0.06900
C854        C  0.12437679  0.73998920  0.25466302    -0.07700
C855        C  0.12986426  0.77127808  0.23617784    -0.02200
C856        C  0.12539530  0.79923587  0.26075400     0.04600
N857        N  0.11184548  0.83044265  0.24781626     0.67100
H858        H  0.12572427  0.81702510  0.31675045     0.16000
H859        H  0.12105791  0.71763620  0.23845110     0.15700
N860        N  0.11424530  0.70429499  0.30901723     0.74800
O861        O  0.08788758  0.83013870  0.22596513    -0.38600
O862        O  0.11943623  0.85780853  0.26314522    -0.38600
O863        O  0.08721701  0.70178001  0.32544784    -0.39300
O864        O  0.12935705  0.67777068  0.29968672    -0.39300
C865        C  0.12295379  0.74162074  0.42443519    -0.11600
C866        C  0.11517631  0.75386909  0.38857279     0.05400
C867        C  0.08161854  0.76252906  0.38200924    -0.06900
C868        C  0.05820154  0.75812407  0.41011074    -0.07700
C869        C  0.06651975  0.74475758  0.44471669    -0.02200
C870        C  0.09918343  0.73598605  0.45158003     0.04600
N871        N  0.10884929  0.72224924  0.48649110     0.67100
H872        H  0.14786213  0.73526279  0.43152123     0.16000
H873        H  0.03308860  0.76567332  0.40489179     0.15700
N874        N  0.07053523  0.77828775  0.34865946     0.74800
O875        O  0.11562304  0.69506791  0.98786907    -0.38600
O876        O  0.12885833  0.74508048  0.00709111    -0.38600
O877        O  0.05315822  0.76165513  0.32667300    -0.39300
O878        O  0.06847520  0.81000438  0.34759395    -0.39300
C879        C  0.19070712  0.84508840  0.37684903    -0.11600
C880        C  0.22255647  0.83077832  0.37929379     0.05400
C881        C  0.22067797  0.80254126  0.40361263    -0.06900
C882        C  0.19454537  0.77993425  0.39935580    -0.07700
C883        C  0.16700424  0.78793790  0.37690030    -0.02200
C884        C  0.16243193  0.82379092  0.37519311     0.04600
N885        N  0.13062683  0.83896697  0.37852745     0.67100
H886        H  0.18776577  0.87206018  0.37434622     0.16000
H887        H  0.19585335  0.75629057  0.41409699     0.15700
N888        N  0.23926408  0.80076721  0.43714667     0.74800
O889        O  0.11173828  0.82901639  0.40373926    -0.38600
O890        O  0.12458356  0.86686238  0.36303906    -0.38600
O891        O  0.23862148  0.82607891  0.45821214    -0.39300
O892        O  0.24465038  0.77237850  0.45173812    -0.39300
C893        C  0.20728622  0.63727243  0.28688156    -0.11600
C894        C  0.23606458  0.62810914  0.30575207     0.05400
C895        C  0.26085882  0.61280030  0.28301471    -0.06900
C896        C  0.26018893  0.61763108  0.24396230    -0.07700
C897        C  0.23498149  0.63639460  0.22633965    -0.02200
C898        C  0.20594924  0.63974669  0.24816845     0.04600
N899        N  0.17434941  0.64392121  0.23207727     0.67100
H900        H  0.18539244  0.64361629  0.30190549     0.16000
H901        H  0.28095868  0.60918890  0.22823587     0.15700
N902        N  0.28899710  0.59656479  0.29880493     0.74800
O903        O  0.15758762  0.61816041  0.22599357    -0.38600
O904        O  0.15949760  0.67152137  0.23662020    -0.38600
O905        O  0.28925305  0.56494757  0.30199553    -0.39300
O906        O  0.31599086  0.61141426  0.29803275    -0.39300
C907        C  0.24940071  0.62573419  0.41255112    -0.11600
C908        C  0.24139991  0.61451616  0.37682745     0.05400
C909        C  0.23341135  0.57974983  0.37285936    -0.06900
C910        C  0.23587494  0.55820416  0.40375595    -0.07700
C911        C  0.24835072  0.56931796  0.43764200    -0.02200
C912        C  0.25730479  0.60338958  0.44108459     0.04600
N913        N  0.27675178  0.61562946  0.47117098     0.67100
H914        H  0.25394916  0.65227045  0.41663830     0.16000
H915        H  0.22850793  0.53220176  0.40104619     0.15700
N916        N  0.22057029  0.56585780  0.33941231     0.74800
O917        O  0.29974566  0.59755939  0.48373497    -0.38600
O918        O  0.27720725  0.64688691  0.47772303    -0.38600
O919        O  0.23260447  0.53862913  0.32711352    -0.39300
O920        O  0.19221236  0.57435800  0.32925286    -0.39300
C921        C  0.22249232  0.70447919  0.35388781    -0.11600
C922        C  0.21537899  0.67015076  0.35756864     0.05400
C923        C  0.18193791  0.66442919  0.36884010    -0.06900
C924        C  0.15904225  0.69204986  0.37278765    -0.07700
C925        C  0.16671496  0.72502401  0.36058277    -0.02200
C926        C  0.19830218  0.72820286  0.34710661     0.04600
N927        N  0.20163564  0.74671224  0.31462121     0.67100
H928        H  0.24609771  0.71394916  0.34891177     0.16000
H929        H  0.13459204  0.68679538  0.38231162     0.15700
N930        N  0.17006146  0.63135663  0.37577869     0.74800
O931        O  0.21658181  0.77416708  0.31322157    -0.38600
O932        O  0.19005961  0.73333850  0.28626544    -0.38600
O933        O  0.17467083  0.61843423  0.40724158    -0.39300
O934        O  0.14672707  0.62080492  0.35643139    -0.39300
C935        C  0.30947993  0.70605419  0.32610204    -0.11600
C936        C  0.33398448  0.70251862  0.35231481     0.05400
C937        C  0.33361489  0.67093557  0.37150333    -0.06900
C938        C  0.30508944  0.65031046  0.36952380    -0.07700
C939        C  0.27821245  0.65817531  0.34544151    -0.02200
C940        C  0.28603939  0.68252546  0.31888533     0.04600
N941        N  0.27093554  0.68409557  0.28386879     0.67100
H942        H  0.30823258  0.72879307  0.31141911     0.16000
H943        H  0.30538933  0.62713299  0.38511143     0.15700
N944        N  0.36189619  0.65766870  0.38990286     0.74800
O945        O  0.24525737  0.70108101  0.27894716    -0.38600
O946        O  0.28782943  0.67530871  0.25643779    -0.38600
O947        O  0.35897168  0.64320062  0.42079860    -0.39300
O948        O  0.38848685  0.65475981  0.37242068    -0.39300
C949        C  0.24710727  0.64529209  0.84506473    -0.01800
C950        C  0.14804620  0.76065089  0.85602533    -0.01800
C951        C  0.36391406  0.73685275  0.85055047    -0.01800
C952        C  0.25966410  0.84991393  0.85555130    -0.01800
C953        C  0.23498696  0.65195724  0.68418193    -0.01800
C954        C  0.13653574  0.76980604  0.68877990    -0.01800
C955        C  0.35468839  0.73886182  0.69135072    -0.01800
C956        C  0.25468049  0.85399473  0.68691705    -0.01800
O957        O  0.02924560  0.72070007  0.56472707    -0.71100
O958        O  0.47403705  0.71079285  0.98719663    -0.71400
O959        O  0.04089647  0.71988122  0.98879781    -0.71200
O960        O  0.46703791  0.71217895  0.56093421    -0.71200
O961        O  0.45939864  0.76637202  0.55690805    -0.71200
O962        O  0.03165098  0.77363380  0.98312362    -0.71200
O963        O  0.46660872  0.76502994  0.98401757    -0.71100
O964        O  0.02287478  0.77467563  0.55784907    -0.71300
V965        V  0.99933541  0.71464909  0.52495767     1.35200
V966        V  0.49333998  0.76754668  0.52119660     1.35200
C967        C  0.03574388  0.75020553  0.57532315     0.78100
C968        C  0.45928735  0.73589498  0.97304543     0.78200
C969        C  0.04731546  0.74752242  0.97299439     0.78000
C970        C  0.45182984  0.73852161  0.57114863     0.78000
O971        O  0.29000779  0.96573524  0.98922079    -0.71100
O972        O  0.27258589  0.54124276  0.55734183    -0.71400
O973        O  0.27991728  0.97495024  0.56258068    -0.71200
O974        O  0.28073413  0.53865516  0.98127813    -0.71200
O975        O  0.22799725  0.53456821  0.97926304    -0.71200
O976        O  0.22782401  0.96725865  0.55639048    -0.71200
O977        O  0.22035885  0.53254433  0.55590818    -0.71100
O978        O  0.23741204  0.96250534  0.98365037    -0.71300
V979        V  0.27784832  0.00583898  0.52214560     1.35200
V980        V  0.22738987  0.00057337  0.51839392     1.35200
C981        C  0.26557503  0.95234013  0.97391940     0.78100
C982        C  0.24413250  0.54873972  0.56871246     0.78200
C983        C  0.25432056  0.96001768  0.57267087     0.78000
C984        C  0.25389104  0.54758469  0.96696532     0.78000
C985        C  0.26045164  0.94329770  0.63902723    -0.11600
C986        C  0.25550379  0.93403773  0.60207699     0.05400
C987        C  0.25220573  0.89983622  0.59347431    -0.06900
C988        C  0.25500939  0.87573489  0.62146442    -0.07700
C989        C  0.25812109  0.88412369  0.65940837    -0.02200
C990        C  0.26042630  0.91929324  0.66800000     0.04600
N991        N  0.26031839  0.93211236  0.70506194     0.67100
H992        H  0.26238580  0.96981175  0.64569139     0.16000
H993        H  0.25341360  0.84964590  0.61329057     0.15700
N994        N  0.24541274  0.88892043  0.55651501     0.74800
O995        O  0.28056759  0.95447698  0.71356006    -0.38600
O996        O  0.23458433  0.93013982  0.72408814    -0.38600
O997        O  0.26062167  0.86375740  0.54341985    -0.39300
O998        O  0.21959962  0.89896169  0.54075173    -0.39300
C999        C  0.37247411  0.74552492  0.62426432    -0.11600
C1000       C  0.38203767  0.73796596  0.66095817     0.05400
C1001       C  0.41608280  0.72938004  0.66619893    -0.06900
C1002       C  0.43683813  0.72632680  0.63542233    -0.07700
C1003       C  0.42703765  0.73694994  0.60045749    -0.02200
C1004       C  0.39510003  0.74912461  0.59562954     0.04600
N1005       N  0.38611839  0.76858538  0.56381807     0.67100
H1006       H  0.34750251  0.75220543  0.61815439     0.16000
H1007       H  0.46216094  0.71908647  0.63962722     0.15700
N1008       N  0.43186859  0.72716442  0.70147220     0.74800
O1009       O  0.38983904  0.75678300  0.53175623    -0.38600
O1010       O  0.37855679  0.79931468  0.56770004    -0.38600
O1011       O  0.44887391  0.70119620  0.70858486    -0.39300
O1012       O  0.43987771  0.75432346  0.71685377    -0.38900
C1013       C  0.33709067  0.80083835  0.66514878    -0.11600
C1014       C  0.33404085  0.77424338  0.69141493     0.05400
C1015       C  0.30784342  0.77951759  0.71676457    -0.06900
C1016       C  0.28233545  0.80149214  0.70901745    -0.07700
C1017       C  0.28342076  0.82681692  0.68267819    -0.02200
C1018       C  0.31286539  0.82702962  0.66093298     0.04600
N1019       N  0.32026021  0.85390792  0.63621094     0.67100
H1020       H  0.35890112  0.80273503  0.64857653     0.16000
H1021       H  0.26376531  0.80313916  0.72976726     0.15700
N1022       N  0.30845224  0.76832781  0.75401402     0.74800
O1023       O  0.33110259  0.88107094  0.64907456    -0.38600
O1024       O  0.32396852  0.84762851  0.60223183    -0.38600
O1025       O  0.28541972  0.75006490  0.76415379    -0.39300
O1026       O  0.31855173  0.78916992  0.77746519    -0.39300
C1027       C  0.07427034  0.78701557  0.60834819    -0.11600
C1028       C  0.05795807  0.75651783  0.60709477     0.05400
C1029       C  0.06196275  0.73415103  0.63711098    -0.06900
C1030       C  0.08357582  0.74189896  0.66606383    -0.07700
C1031       C  0.10488233  0.76952826  0.66398541    -0.02200
C1032       C  0.09683314  0.79419803  0.63614140     0.04600
N1033       N  0.10890351  0.82774231  0.63608210     0.67100
H1034       H  0.06974022  0.80578336  0.58711086     0.16000
H1035       H  0.08601724  0.72380961  0.68813746     0.15700
N1036       N  0.04523425  0.70285580  0.63817937     0.74800
O1037       O  0.12761626  0.83663483  0.61017685    -0.38600
O1038       O  0.09273574  0.85020519  0.65308196    -0.38600
O1039       O  0.05857372  0.67704474  0.62404256    -0.39300
O1040       O  0.02138812  0.69941558  0.65991113    -0.39300
C1041       C  0.21808825  0.80782832  0.65440529    -0.11600
C1042       C  0.22028202  0.83764911  0.67555348     0.05400
C1043       C  0.18910825  0.85318634  0.68214831    -0.06900
C1044       C  0.16130529  0.83255205  0.68624218    -0.07700
C1045       C  0.16092852  0.79884303  0.67344695    -0.02200
C1046       C  0.18770305  0.79157400  0.64859851     0.04600
N1047       N  0.18492038  0.76718696  0.61921890     0.67100
H1048       H  0.23958633  0.79815166  0.64082146     0.16000
H1049       H  0.13969422  0.84421495  0.69676082     0.15700
N1050       N  0.18567589  0.88859706  0.68873730     0.74800
O1051       O  0.15734020  0.76079980  0.60568738    -0.38600
O1052       O  0.21007582  0.75622186  0.60266299    -0.38600
O1053       O  0.18872079  0.90846736  0.66175840    -0.39300
O1054       O  0.17053968  0.89884965  0.71711270    -0.39300
C1055       C  0.24076200  0.63301958  0.61833215    -0.11600
C1056       C  0.23285194  0.62377189  0.65478294     0.05400
C1057       C  0.22456204  0.58928405  0.66100878    -0.06900
C1058       C  0.22795413  0.56559106  0.63231216    -0.07700
C1059       C  0.23878747  0.57496644  0.59722804    -0.02200
C1060       C  0.24425583  0.60914950  0.59016984     0.04600
N1061       N  0.25421666  0.62027143  0.55467409     0.67100
H1062       H  0.24568813  0.65912928  0.61189208     0.16000
H1063       H  0.22214923  0.53946842  0.63762197     0.15700
N1064       N  0.21004943  0.57768099  0.69451960     0.74800
O1065       O  0.23251103  0.62979170  0.53212743    -0.38600
O1066       O  0.28301223  0.63059046  0.55088302    -0.38600
O1067       O  0.17941751  0.57509723  0.69540561    -0.39300
O1068       O  0.22682337  0.55899114  0.71562548    -0.39300
C1069       C  0.15019499  0.70506036  0.66527358    -0.11600
C1070       C  0.15804484  0.73592289  0.68472208     0.05400
C1071       C  0.19039647  0.73599645  0.69821739    -0.06900
C1072       C  0.21214238  0.71382050  0.68181163    -0.07700
C1073       C  0.20615836  0.68012884  0.67557273    -0.02200
C1074       C  0.17302213  0.67662737  0.66308943     0.04600
N1075       N  0.16249263  0.64640429  0.64562778     0.67100
H1076       H  0.12731572  0.70191971  0.65142771     0.16000
H1077       H  0.22849332  0.72634103  0.66306082     0.15700
N1078       N  0.20515260  0.76260659  0.71928287     0.74800
O1079       O  0.13854352  0.63093684  0.65905105    -0.38600
O1080       O  0.16981172  0.64155877  0.61212276    -0.38600
O1081       O  0.18925684  0.78518363  0.73603616    -0.39300
O1082       O  0.23371489  0.75752410  0.72997451    -0.39300
C1083       C  0.27466051  0.70194120  0.68911615    -0.11600
C1084       C  0.27121731  0.66831588  0.68031394     0.05400
C1085       C  0.30354962  0.65358284  0.67270731    -0.06900
C1086       C  0.33253515  0.67475901  0.67540445    -0.07700
C1087       C  0.32892323  0.71054323  0.68125191    -0.02200
C1088       C  0.29768374  0.72108618  0.67202180     0.04600
N1089       N  0.29200486  0.72898769  0.63383694     0.67100
H1090       H  0.26371708  0.71143245  0.71355229     0.16000
H1091       H  0.35640344  0.66361786  0.67125642     0.15700
N1092       N  0.30835734  0.61881108  0.66358530     0.74800
O1093       O  0.29824052  0.70758573  0.60885698    -0.38600
O1094       O  0.28188424  0.75792668  0.62482069    -0.38600
O1095       O  0.30753554  0.61042065  0.62999082    -0.39300
O1096       O  0.32473261  0.60047626  0.68544840    -0.39300
C1097       C  0.28415749  0.86757525  0.79076974    -0.11600
C1098       C  0.25604919  0.86066428  0.81252784     0.05400
C1099       C  0.22691204  0.85958934  0.79091520    -0.06900
C1100       C  0.22850866  0.85430884  0.75297999    -0.07700
C1101       C  0.25522048  0.86287476  0.73046003    -0.02200
C1102       C  0.28397279  0.87059159  0.75132633     0.04600
N1103       N  0.31458178  0.87672582  0.73355364     0.67100
H1104       H  0.30705701  0.87026003  0.80413981     0.16000
H1105       H  0.20636337  0.84497149  0.74244612     0.15700
N1106       N  0.19712334  0.87626119  0.80100741     0.74800
O1107       O  0.32446422  0.90658432  0.73161289    -0.38600
O1108       O  0.33566687  0.85327156  0.73276740    -0.38600
O1109       O  0.19532842  0.90763563  0.79608914    -0.39300
O1110       O  0.17115445  0.86022264  0.79676342    -0.39300
C1111       C  0.28024414  0.87233138  0.91701895    -0.11600
C1112       C  0.26627632  0.88030101  0.88236492     0.05400
C1113       C  0.25424021  0.91425090  0.87857866    -0.06900
C1114       C  0.25483965  0.93653355  0.90900968    -0.07700
C1115       C  0.26898637  0.92778430  0.94282470    -0.02200
C1116       C  0.28350637  0.89560362  0.94601191     0.04600
N1117       N  0.30160789  0.88558604  0.97810827     0.67100
H1118       H  0.28968944  0.84719955  0.92181041     0.16000
H1119       H  0.24461951  0.96172898  0.90592519     0.15700
N1120       N  0.24197513  0.92794275  0.84473844     0.74800
O1121       O  0.30231612  0.85494408  0.98756709    -0.38600
O1122       O  0.32279882  0.90502856  0.99109980    -0.38600
O1123       O  0.21700197  0.94697092  0.84623660    -0.39300
O1124       O  0.26160824  0.93192400  0.81823092    -0.39300
C1125       C  0.38323220  0.70797400  0.79028819    -0.11600
C1126       C  0.37958352  0.73878161  0.81002967     0.05400
C1127       C  0.38294257  0.76807493  0.78738539    -0.06900
C1128       C  0.37929433  0.76543719  0.74889067    -0.07700
C1129       C  0.36976559  0.73537606  0.73129188    -0.02200
C1130       C  0.37574640  0.70543514  0.75231215     0.04600
N1131       N  0.37518160  0.67227775  0.73689278     0.67100
H1132       H  0.38652082  0.68473502  0.80562521     0.16000
H1133       H  0.38159247  0.78828875  0.73276377     0.15700
N1134       N  0.39153576  0.80057818  0.80105828     0.74800
O1135       O  0.39908224  0.66207400  0.71775300    -0.38600
O1136       O  0.35734544  0.65046926  0.75179878    -0.38600
O1137       O  0.42124546  0.80646076  0.80649325    -0.39300
O1138       O  0.37321534  0.82537402  0.79320365    -0.39300
C1139       C  0.38057077  0.72824240  0.91804869    -0.11600
C1140       C  0.39095040  0.73442711  0.88137403     0.05400
C1141       C  0.42560103  0.73870966  0.87638691    -0.06900
C1142       C  0.44652964  0.73837959  0.90708425    -0.07700
C1143       C  0.43551078  0.73200171  0.94269670    -0.02200
C1144       C  0.40214510  0.72536320  0.94828678     0.04600
N1145       N  0.38967820  0.71500416  0.98379503     0.67100
H1146       H  0.35542976  0.72269805  0.92287361     0.16000
H1147       H  0.47236068  0.74277069  0.90290601     0.15700
N1148       N  0.44138855  0.74290264  0.84133948     0.74800
O1149       O  0.35900205  0.70247074  0.49080996    -0.38600
O1150       O  0.40900275  0.68851568  0.50415586    -0.38600
O1151       O  0.46176642  0.76631638  0.83824062    -0.39300
O1152       O  0.44563678  0.71720749  0.82131545    -0.39300
C1153       C  0.34855779  0.80242722  0.86205089    -0.11600
C1154       C  0.33969008  0.76835404  0.85888309     0.05400
C1155       C  0.30623875  0.76357794  0.86615076    -0.06900
C1156       C  0.28338646  0.78799248  0.85451616    -0.07700
C1157       C  0.29003597  0.82279994  0.85690207    -0.02200
C1158       C  0.32476984  0.82951472  0.86212684     0.04600
N1159       N  0.33722050  0.86255259  0.86911675     0.67100
H1160       H  0.37406115  0.80827296  0.86556599     0.16000
H1161       H  0.25929538  0.77918855  0.84898159     0.15700
N1162       N  0.29818779  0.74487357  0.89871517     0.74800
O1163       O  0.34724422  0.86876667  0.90134732    -0.38600
O1164       O  0.35027106  0.87842153  0.84287630    -0.38600
O1165       O  0.30831991  0.75527052  0.92956229    -0.39300
O1166       O  0.27599972  0.72329293  0.89822175    -0.39300
C1167       C  0.13297398  0.79621728  0.79486585    -0.11600
C1168       C  0.13521273  0.76500520  0.81383781     0.05400
C1169       C  0.12408077  0.73737613  0.79208331    -0.06900
C1170       C  0.12176302  0.73996199  0.75269171    -0.07700
C1171       C  0.12662352  0.77047348  0.73271321    -0.02200
C1172       C  0.12490327  0.79925882  0.75638059     0.04600
N1173       N  0.10662472  0.82858508  0.74516453     0.67100
H1174       H  0.13229485  0.81860966  0.81091719     0.16000
H1175       H  0.11611256  0.71740293  0.73765688     0.15700
N1176       N  0.11415213  0.70669288  0.80936536     0.74800
O1177       O  0.08174037  0.82528531  0.72505932    -0.38600
O1178       O  0.11183041  0.85684662  0.75984974    -0.38600
O1179       O  0.08574831  0.70484145  0.82262701    -0.39300
O1180       O  0.13003688  0.67978251  0.80366255    -0.39300
C1181       C  0.12819265  0.74582384  0.92117639    -0.11600
C1182       C  0.11979710  0.75723016  0.88515116     0.05400
C1183       C  0.08620193  0.76641474  0.87948464    -0.06900
C1184       C  0.06328888  0.76273495  0.90838965    -0.07700
C1185       C  0.07213492  0.74957531  0.94298415    -0.02200
C1186       C  0.10489170  0.74057236  0.94898604     0.04600
N1187       N  0.11511097  0.72661617  0.98358490     0.67100
H1188       H  0.15322242  0.73961748  0.92784922     0.16000
H1189       H  0.03816503  0.77056157  0.90376051     0.15700
N1190       N  0.07473033  0.78216386  0.84626362     0.74800
O1191       O  0.10829207  0.69079801  0.49142397    -0.38600
O1192       O  0.12311292  0.74060639  0.50970012    -0.38600
O1193       O  0.05525740  0.76642476  0.82581363    -0.39300
O1194       O  0.07499230  0.81386313  0.84410011    -0.39300
C1195       C  0.19501599  0.84705855  0.86815464    -0.11600
C1196       C  0.22675484  0.83316659  0.87190734     0.05400
C1197       C  0.22549911  0.80493635  0.89624157    -0.06900
C1198       C  0.19962134  0.78220239  0.89225618    -0.07700
C1199       C  0.17159096  0.79017616  0.87065593    -0.02200
C1200       C  0.16689052  0.82585507  0.86812033     0.04600
N1201       N  0.13530315  0.84104335  0.87366405     0.67100
H1202       H  0.19202145  0.87412206  0.86668291     0.16000
H1203       H  0.20119134  0.75869433  0.90724747     0.15700
N1204       N  0.24212752  0.80483899  0.93107106     0.74800
O1205       O  0.11826036  0.83165957  0.90077939    -0.38600
O1206       O  0.12835257  0.86883101  0.85840702    -0.38600
O1207       O  0.23731158  0.82970893  0.95220568    -0.39300
O1208       O  0.24913306  0.77697172  0.94601137    -0.39300
C1209       C  0.20891870  0.64111965  0.78798868    -0.11600
C1210       C  0.23870894  0.63183562  0.80489519     0.05400
C1211       C  0.26155538  0.61546017  0.78068189    -0.06900
C1212       C  0.25830373  0.61940622  0.74170507    -0.07700
C1213       C  0.23218448  0.63794159  0.72533215    -0.02200
C1214       C  0.20519474  0.64341383  0.74947775     0.04600
N1215       N  0.17305605  0.64968030  0.73641766     0.67100
H1216       H  0.18798410  0.64802375  0.80439080     0.16000
H1217       H  0.27740631  0.60937029  0.72449364     0.15700
N1218       N  0.28939672  0.59720577  0.79444817     0.74800
O1219       O  0.15350285  0.62546824  0.73538772    -0.38600
O1220       O  0.16144889  0.67883542  0.74076290    -0.38600
O1221       O  0.29057071  0.56572025  0.78988602    -0.39300
O1222       O  0.31589207  0.61236563  0.79908007    -0.39300
C1223       C  0.25377298  0.62855288  0.91144079    -0.11600
C1224       C  0.24590025  0.61768811  0.87552415     0.05400
C1225       C  0.23772581  0.58295338  0.87126621    -0.06900
C1226       C  0.24027692  0.56110327  0.90187882    -0.07700
C1227       C  0.25267003  0.57187229  0.93589796    -0.02200
C1228       C  0.26136909  0.60595743  0.93989663     0.04600
N1229       N  0.27993402  0.61806118  0.97077559     0.67100
H1230       H  0.25817916  0.65507604  0.91587910     0.16000
H1231       H  0.23285261  0.53514107  0.89889740     0.15700
N1232       N  0.22459825  0.56930785  0.83784416     0.74800
O1233       O  0.30232396  0.59981848  0.98438424    -0.38600
O1234       O  0.28033354  0.64929814  0.97741384    -0.38600
O1235       O  0.23633638  0.54198999  0.82542360    -0.39300
O1236       O  0.19617563  0.57796535  0.82805345    -0.39300
C1237       C  0.22645859  0.70745706  0.84639086    -0.11600
C1238       C  0.22072871  0.67399970  0.85657094     0.05400
C1239       C  0.18801869  0.66864486  0.87047752    -0.06900
C1240       C  0.16458449  0.69581318  0.87215938    -0.07700
C1241       C  0.17078533  0.72757117  0.85574960    -0.02200
C1242       C  0.20144651  0.73009370  0.83931602     0.04600
N1243       N  0.20359165  0.74742120  0.80580290     0.67100
H1244       H  0.24940169  0.71638958  0.83748235     0.16000
H1245       H  0.14067907  0.69076844  0.88343134     0.15700
N1246       N  0.17693506  0.63599890  0.88086104     0.74800
O1247       O  0.21402160  0.77709324  0.80369285    -0.38600
O1248       O  0.19287735  0.73218981  0.77806620    -0.38600
O1249       O  0.18154104  0.62606788  0.91359865    -0.39300
O1250       O  0.15405779  0.62314683  0.86256921    -0.39300
C1251       C  0.31815469  0.70553338  0.82032438    -0.11600
C1252       C  0.34032187  0.70467106  0.84931523     0.05400
C1253       C  0.33811044  0.67503365  0.87163060    -0.06900
C1254       C  0.30941618  0.65461554  0.86958441    -0.07700
C1255       C  0.28325544  0.66131411  0.84401658    -0.02200
C1256       C  0.29269250  0.68357205  0.81570194     0.04600
N1257       N  0.27866347  0.68328458  0.78015112     0.67100
H1258       H  0.32194148  0.72364216  0.79936084     0.16000
H1259       H  0.30926515  0.63230892  0.88654100     0.15700
N1260       N  0.36538968  0.66259781  0.89248053     0.74800
O1261       O  0.25095225  0.69633499  0.77436292    -0.38600
O1262       O  0.29753093  0.67714023  0.75347397    -0.38600
O1263       O  0.36094257  0.64982648  0.92403540    -0.39300
O1264       O  0.39268040  0.65850020  0.87671209    -0.39300
C1265       C  0.74161636  0.14375586  0.34647407    -0.01800
C1266       C  0.64474038  0.26147917  0.36088547    -0.01800
C1267       C  0.85748116  0.23584650  0.35262100    -0.01800
C1268       C  0.75706758  0.35016791  0.35996225    -0.01800
C1269       C  0.73425593  0.15256457  0.18586505    -0.01800
C1270       C  0.63800601  0.27267499  0.19356105    -0.01800
C1271       C  0.85380019  0.23946682  0.18945347    -0.01800
C1272       C  0.75618289  0.35815096  0.18966713    -0.01800
O1273       O  0.53342181  0.22316500  0.06570122    -0.71100
O1274       O  0.97189742  0.20913550  0.48514469    -0.71400
O1275       O  0.53708058  0.21776704  0.49056926    -0.71200
O1276       O  0.96805952  0.21329891  0.06156122    -0.71200
O1277       O  0.96201376  0.26767776  0.05759047    -0.71200
O1278       O  0.52808441  0.27167046  0.48573168    -0.71200
O1279       O  0.96434127  0.26336161  0.48266790    -0.71100
O1280       O  0.52787191  0.27719458  0.05859461    -0.71300
V1281       V  0.50314570  0.21747475  0.02616080     1.35200
V1282       V  0.99534225  0.26769095  0.02111334     1.35200
C1283       C  0.54027117  0.25259419  0.07629418     0.78100
C1284       C  0.95697447  0.23433303  0.47128153     0.78200
C1285       C  0.54370371  0.24565677  0.47550184     0.78000
C1286       C  0.95367666  0.24009496  0.07187697     0.78000
O1287       O  0.78597805  0.47066967  0.48908171    -0.71100
O1288       O  0.77298961  0.04292702  0.05801409    -0.71400
O1289       O  0.78164439  0.47607220  0.06178098    -0.71200
O1290       O  0.77810383  0.03674326  0.48130883    -0.71200
O1291       O  0.72543775  0.03186342  0.47945376    -0.71200
O1292       O  0.72982919  0.46728709  0.05466581    -0.71200
O1293       O  0.72095580  0.03337127  0.05577495    -0.71100
O1294       O  0.73360076  0.46530044  0.48375705    -0.71300
V1295       V  0.77961544  0.50666249  0.02102755     1.35200
V1296       V  0.72937412  0.50029575  0.01620166     1.35200
C1297       C  0.76206562  0.45646112  0.47373989     0.78100
C1298       C  0.74426211  0.05025266  0.06867683     0.78200
C1299       C  0.75613627  0.46094446  0.07180659     0.78000
C1300       C  0.75106948  0.04540841  0.46722413     0.78000
C1301       C  0.76110747  0.44609730  0.13909279    -0.11600
C1302       C  0.75721998  0.43581539  0.10221523     0.05400
C1303       C  0.75485918  0.40133525  0.09462124    -0.06900
C1304       C  0.75684818  0.37797375  0.12344761    -0.07700
C1305       C  0.75930214  0.38743530  0.16115726    -0.02200
C1306       C  0.76113855  0.42270751  0.16871820     0.04600
N1307       N  0.76080407  0.43599245  0.20550564     0.67100
H1308       H  0.76249853  0.47278072  0.14511409     0.16000
H1309       H  0.75552432  0.35161949  0.11610162     0.15700
N1310       N  0.75040530  0.38937054  0.05765495     0.74800
O1311       O  0.78235815  0.45680475  0.21455274    -0.38600
O1312       O  0.73443048  0.43594183  0.22357718    -0.38600
O1313       O  0.76914221  0.36655054  0.04521819    -0.39300
O1314       O  0.72400825  0.39581562  0.04100356    -0.39300
C1315       C  0.87381114  0.24943011  0.12351432    -0.11600
C1316       C  0.88192480  0.23917856  0.15992290     0.05400
C1317       C  0.91519657  0.22782046  0.16540050    -0.06900
C1318       C  0.93674536  0.22593691  0.13517757    -0.07700
C1319       C  0.92848371  0.23918624  0.10081718    -0.02200
C1320       C  0.89728223  0.25314731  0.09579325     0.04600
N1321       N  0.88976664  0.27373329  0.06436867     0.67100
H1322       H  0.84937124  0.25757262  0.11685344     0.16000
H1323       H  0.96140728  0.21654504  0.13943063     0.15700
N1324       N  0.92921790  0.21963009  0.20059356     0.74800
O1325       O  0.89140186  0.26178696  0.03215233    -0.38600
O1326       O  0.88522514  0.30499932  0.06866788    -0.38600
O1327       O  0.94541798  0.19244737  0.20342044    -0.39300
O1328       O  0.93688282  0.24357470  0.22162772    -0.38900
C1329       C  0.83719254  0.30316012  0.16559052    -0.11600
C1330       C  0.83270042  0.27495955  0.18958430     0.05400
C1331       C  0.80653291  0.28022706  0.21507468    -0.06900
C1332       C  0.78284289  0.30497757  0.21023256    -0.07700
C1333       C  0.78497021  0.33111598  0.18529099    -0.02200
C1334       C  0.81417652  0.33077552  0.16312400     0.04600
N1335       N  0.82275119  0.35857860  0.14013424     0.67100
H1336       H  0.85937272  0.30536618  0.14974667     0.16000
H1337       H  0.76338182  0.30620315  0.23004655     0.15700
N1338       N  0.80460770  0.26288939  0.24897732     0.74800
O1339       O  0.83165309  0.38575972  0.15481611    -0.38600
O1340       O  0.82850779  0.35362145  0.10624655    -0.38600
O1341       O  0.80547349  0.23153853  0.24861295    -0.39300
O1342       O  0.79605532  0.27840661  0.27802557    -0.39300
C1343       C  0.57804170  0.28934684  0.11068045    -0.11600
C1344       C  0.56203058  0.25870272  0.10860414     0.05400
C1345       C  0.56551888  0.23615945  0.13855940    -0.06900
C1346       C  0.58643260  0.24383069  0.16821975    -0.07700
C1347       C  0.60714488  0.27207261  0.16743724    -0.02200
C1348       C  0.59960092  0.29672563  0.13945473     0.04600
N1349       N  0.61095361  0.33051081  0.14027298     0.67100
H1350       H  0.57385084  0.30822378  0.08947639     0.16000
H1351       H  0.58903671  0.22519432  0.18970109     0.15700
N1352       N  0.54880238  0.20484672  0.13900462     0.74800
O1353       O  0.62998203  0.34013965  0.11500323    -0.38600
O1354       O  0.59384107  0.35240586  0.15698788    -0.38600
O1355       O  0.56273632  0.17892368  0.12587029    -0.39300
O1356       O  0.52404977  0.20158488  0.15942924    -0.39300
C1357       C  0.72067488  0.30942782  0.16029859    -0.11600
C1358       C  0.72202944  0.34081632  0.17868665     0.05400
C1359       C  0.69038355  0.35620940  0.18298754    -0.06900
C1360       C  0.66314842  0.33522252  0.18953284    -0.07700
C1361       C  0.66332020  0.30092997  0.17888483    -0.02200
C1362       C  0.69069573  0.29252673  0.15537095     0.04600
N1363       N  0.68813675  0.26787787  0.12638008     0.67100
H1364       H  0.74236841  0.29908163  0.14749450     0.16000
H1365       H  0.64145030  0.34693162  0.19985788     0.15700
N1366       N  0.68606713  0.39202147  0.18608743     0.74800
O1367       O  0.66204289  0.26589881  0.10808664    -0.38600
O1368       O  0.71309594  0.25193272  0.11508011    -0.38600
O1369       O  0.68987437  0.40987296  0.15758836    -0.39300
O1370       O  0.66984411  0.40420428  0.21277982    -0.39300
C1371       C  0.73912431  0.13459217  0.11902237    -0.11600
C1372       C  0.73080653  0.12500472  0.15539972     0.05400
C1373       C  0.72278003  0.09019765  0.16079125    -0.06900
C1374       C  0.72667638  0.06693643  0.13173508    -0.07700
C1375       C  0.73807234  0.07660162  0.09705852    -0.02200
C1376       C  0.74342766  0.11093238  0.09056487     0.04600
N1377       N  0.75431511  0.12232241  0.05547880     0.67100
H1378       H  0.74414488  0.16075890  0.11298544     0.16000
H1379       H  0.72107992  0.04068752  0.13661812     0.15700
N1380       N  0.70831015  0.07743104  0.19381245     0.74800
O1381       O  0.73329576  0.13152099  0.03197054    -0.38600
O1382       O  0.78328644  0.13233536  0.05246084    -0.38600
O1383       O  0.67818120  0.07141016  0.19290402    -0.39300
O1384       O  0.72589535  0.05966042  0.21502136    -0.39300
C1385       C  0.65422172  0.21150937  0.16482424    -0.11600
C1386       C  0.65952440  0.23910299  0.19028280     0.05400
C1387       C  0.68949768  0.23710175  0.21013022    -0.06900
C1388       C  0.71084402  0.21127354  0.20131216    -0.07700
C1389       C  0.70611788  0.18175872  0.18177413    -0.02200
C1390       C  0.67659163  0.18324653  0.16082384     0.04600
N1391       N  0.66895582  0.15772538  0.13461118     0.67100
H1392       H  0.63401879  0.21197582  0.14591630     0.16000
H1393       H  0.72224248  0.22882231  0.18258476     0.15700
N1394       N  0.70485692  0.26481241  0.22991476     0.74800
O1395       O  0.65259828  0.13269760  0.14479939    -0.38600
O1396       O  0.67139443  0.16417872  0.10054669    -0.38600
O1397       O  0.68929528  0.28939450  0.24346005    -0.39300
O1398       O  0.73368052  0.26035331  0.24115448    -0.39300
C1399       C  0.77274668  0.20432126  0.17936312    -0.11600
C1400       C  0.77051571  0.16927084  0.17984979     0.05400
C1401       C  0.80286355  0.15396600  0.17538014    -0.06900
C1402       C  0.83173703  0.17520748  0.17574741    -0.07700
C1403       C  0.82852958  0.21116468  0.17732886    -0.02200
C1404       C  0.79825195  0.22131259  0.16396253     0.04600
N1405       N  0.79542446  0.23057874  0.12590436     0.67100
H1406       H  0.76768723  0.21434126  0.20623117     0.16000
H1407       H  0.85568896  0.16370837  0.17357712     0.15700
N1408       N  0.80768904  0.11852494  0.17019478     0.74800
O1409       O  0.80459763  0.21041297  0.10083008    -0.38600
O1410       O  0.78232879  0.25837332  0.11717034    -0.38600
O1411       O  0.80268015  0.10621145  0.13863050    -0.39300
O1412       O  0.82673952  0.10281038  0.19172576    -0.39300
C1413       C  0.78408626  0.36727273  0.29528842    -0.11600
C1414       C  0.75525803  0.36007807  0.31610926     0.05400
C1415       C  0.72692526  0.36224865  0.29326983    -0.06900
C1416       C  0.72859950  0.36373044  0.25480187    -0.07700
C1417       C  0.75663259  0.36775867  0.23337874    -0.02200
C1418       C  0.78515102  0.37201872  0.25574923     0.04600
N1419       N  0.81577997  0.38038802  0.23935139     0.67100
H1420       H  0.80662374  0.36902567  0.30946502     0.16000
H1421       H  0.70535544  0.36115801  0.24278932     0.15700
N1422       N  0.69453632  0.36452772  0.30621796     0.74800
O1423       O  0.82569185  0.41017486  0.24236054    -0.38600
O1424       O  0.83658024  0.35730682  0.23344881    -0.38600
O1425       O  0.68067879  0.39311618  0.30645897    -0.39300
O1426       O  0.67722037  0.33956104  0.29937257    -0.39300
C1427       C  0.77936807  0.37572357  0.41971967    -0.11600
C1428       C  0.76358513  0.38148181  0.38544709     0.05400
C1429       C  0.74913784  0.41427073  0.38087980    -0.06900
C1430       C  0.74970890  0.43779366  0.41010922    -0.07700
C1431       C  0.76636954  0.43153470  0.44322329    -0.02200
C1432       C  0.78355412  0.40067531  0.44694634     0.04600
N1433       N  0.80490660  0.39360164  0.47779377     0.67100
H1434       H  0.78925926  0.35101584  0.42565798     0.16000
H1435       H  0.73724880  0.46187124  0.40661645     0.15700
N1436       N  0.73374076  0.42510006  0.34737753     0.74800
O1437       O  0.81290918  0.36353004  0.48528251    -0.38600
O1438       O  0.82133944  0.41681206  0.49209829    -0.38600
O1439       O  0.70618737  0.43966132  0.34955307    -0.39300
O1440       O  0.75156346  0.43160481  0.31986179    -0.39300
C1441       C  0.87500342  0.20778602  0.29120981    -0.11600
C1442       C  0.87096974  0.23838572  0.31094638     0.05400
C1443       C  0.87458692  0.26780762  0.28843578    -0.06900
C1444       C  0.87545378  0.26527534  0.24952273    -0.07700
C1445       C  0.86812494  0.23527357  0.23034146    -0.02200
C1446       C  0.87115064  0.20534313  0.25255467     0.04600
N1447       N  0.87013928  0.17189100  0.23821716     0.67100
H1448       H  0.87715596  0.18442009  0.30652332     0.16000
H1449       H  0.87849428  0.28836788  0.23400482     0.15700
N1450       N  0.87790547  0.30088539  0.30296582     0.74800
O1451       O  0.89602789  0.15849814  0.22596097    -0.38600
O1452       O  0.84830747  0.15259518  0.25008324    -0.38600
O1453       O  0.90547633  0.31019588  0.31408753    -0.39300
O1454       O  0.85731213  0.32314498  0.29348100    -0.39300
C1455       C  0.87641456  0.22640441  0.41918497    -0.11600
C1456       C  0.88555413  0.23220634  0.38203840     0.05400
C1457       C  0.91987179  0.23607018  0.37535217    -0.06900
C1458       C  0.94206066  0.23614711  0.40505849    -0.07700
C1459       C  0.93226178  0.23053508  0.44150931    -0.02200
C1460       C  0.89896508  0.22424723  0.44857621     0.04600
N1461       N  0.88741026  0.21531634  0.48493157     0.67100
H1462       H  0.85132634  0.22121092  0.42515990     0.16000
H1463       H  0.96770217  0.24030655  0.39940805     0.15700
N1464       N  0.93375490  0.23912169  0.33920886     0.74800
O1465       O  0.85806058  0.20843579  0.99072478    -0.38600
O1466       O  0.90735273  0.19262059  0.00512727    -0.38600
O1467       O  0.95090342  0.26449963  0.33220054    -0.39300
O1468       O  0.93922493  0.21253095  0.32099104    -0.39300
C1469       C  0.84487991  0.30110559  0.36815894    -0.11600
C1470       C  0.83488332  0.26757618  0.36371750     0.05400
C1471       C  0.80181899  0.26353644  0.37240296    -0.06900
C1472       C  0.77953932  0.28824447  0.36083990    -0.07700
C1473       C  0.78698879  0.32286676  0.36275952    -0.02200
C1474       C  0.82194828  0.32884026  0.36805923     0.04600
N1475       N  0.83564906  0.36151588  0.37431975     0.67100
H1476       H  0.87058991  0.30605601  0.37141870     0.16000
H1477       H  0.75552327  0.27969467  0.35480965     0.15700
N1478       N  0.79436450  0.24550618  0.40560104     0.74800
O1479       O  0.84625587  0.36764888  0.40632565    -0.38600
O1480       O  0.84958158  0.37615886  0.34779506    -0.38600
O1481       O  0.80512540  0.25619423  0.43605488    -0.39300
O1482       O  0.77424815  0.22183442  0.40562961    -0.39300
C1483       C  0.62771709  0.29737004  0.30056315    -0.11600
C1484       C  0.63189151  0.26602830  0.31863599     0.05400
C1485       C  0.62212832  0.23853754  0.29584920    -0.06900
C1486       C  0.62137424  0.24179884  0.25639823    -0.07700
C1487       C  0.62662109  0.27274912  0.23719730    -0.02200
C1488       C  0.62307078  0.30108652  0.26137422     0.04600
N1489       N  0.60797820  0.33166443  0.24869645     0.67100
H1490       H  0.62498625  0.31943278  0.31719146     0.16000
H1491       H  0.61672770  0.21942403  0.24068326     0.15700
N1492       N  0.61207443  0.20739895  0.31205067     0.74800
O1493       O  0.58308067  0.33017006  0.22833260    -0.38600
O1494       O  0.61506997  0.35946073  0.26340503    -0.38600
O1495       O  0.58587407  0.20648797  0.33036290    -0.39300
O1496       O  0.62545540  0.18001482  0.30238445    -0.39300
C1497       C  0.62474701  0.24534025  0.42517239    -0.11600
C1498       C  0.61647880  0.25777446  0.38954683     0.05400
C1499       C  0.58298164  0.26720449  0.38378002    -0.06900
C1500       C  0.55990982  0.26241051  0.41207540    -0.07700
C1501       C  0.56862825  0.24827337  0.44614920    -0.02200
C1502       C  0.60132337  0.23948461  0.45254126     0.04600
N1503       N  0.61137029  0.22562737  0.48725483     0.67100
H1504       H  0.64974623  0.23895942  0.43184705     0.16000
H1505       H  0.53478121  0.27024865  0.40745349     0.15700
N1506       N  0.57171284  0.28421135  0.35122976     0.74800
O1507       O  0.61685472  0.19465912  0.99292410    -0.38600
O1508       O  0.62212320  0.24642613  0.01192600    -0.38600
O1509       O  0.55481718  0.26821868  0.32820389    -0.39300
O1510       O  0.56889839  0.31588911  0.35192146    -0.39300
C1511       C  0.69193887  0.34827086  0.37537512    -0.11600
C1512       C  0.72376710  0.33401525  0.37727881     0.05400
C1513       C  0.72234143  0.30577713  0.40170203    -0.06900
C1514       C  0.69622978  0.28310477  0.39785351    -0.07700
C1515       C  0.66823575  0.29113360  0.37617473    -0.02200
C1516       C  0.66367842  0.32698761  0.37439749     0.04600
N1517       N  0.63203038  0.34226397  0.37863502     0.67100
H1518       H  0.68895281  0.37527708  0.37320017     0.16000
H1519       H  0.69766849  0.25955651  0.41276851     0.15700
N1520       N  0.74025342  0.30488363  0.43576285     0.74800
O1521       O  0.61431722  0.33334235  0.40538420    -0.38600
O1522       O  0.62555851  0.36979091  0.36256577    -0.38600
O1523       O  0.73934735  0.33080516  0.45590886    -0.39300
O1524       O  0.74491166  0.27692186  0.45160256    -0.39300
C1525       C  0.70498445  0.14040142  0.28806737    -0.11600
C1526       C  0.73398270  0.13041391  0.30608007     0.05400
C1527       C  0.75748794  0.11374631  0.28273414    -0.06900
C1528       C  0.75560754  0.11767525  0.24356359    -0.07700
C1529       C  0.73061981  0.13719145  0.22649374    -0.02200
C1530       C  0.70252122  0.14222758  0.24939854     0.04600
N1531       N  0.67060214  0.14729555  0.23451614     0.67100
H1532       H  0.68369401  0.14773295  0.30367846     0.16000
H1533       H  0.77531630  0.10775951  0.22714853     0.15700
N1534       N  0.78553594  0.09671353  0.29773219     0.74800
O1535       O  0.65296398  0.12204944  0.22911786    -0.38600
O1536       O  0.65666791  0.17527432  0.23971545    -0.38600
O1537       O  0.78595983  0.06496329  0.29836036    -0.39300
O1538       O  0.81246428  0.11167580  0.29835910    -0.39300
C1539       C  0.74919918  0.12683211  0.41260095    -0.11600
C1540       C  0.74062229  0.11615488  0.37683438     0.05400
C1541       C  0.73240433  0.08148310  0.37247418    -0.06900
C1542       C  0.73584931  0.05938690  0.40275341    -0.07700
C1543       C  0.74921086  0.06991146  0.43641077    -0.02200
C1544       C  0.75782089  0.10402157  0.44048045     0.04600
N1545       N  0.77744796  0.11590544  0.47061395     0.67100
H1546       H  0.75367715  0.15333438  0.41709526     0.16000
H1547       H  0.72835185  0.03344662  0.39979453     0.15700
N1548       N  0.71822658  0.06824392  0.33940075     0.74800
O1549       O  0.80029825  0.09757940  0.48307059    -0.38600
O1550       O  0.77799509  0.14707513  0.47761802    -0.38600
O1551       O  0.72924711  0.04087573  0.32631823    -0.39300
O1552       O  0.68978692  0.07756558  0.33041586    -0.39300
C1553       C  0.72255017  0.20660986  0.35326756    -0.11600
C1554       C  0.71523777  0.17251931  0.35844062     0.05400
C1555       C  0.68195352  0.16741876  0.37058127    -0.06900
C1556       C  0.65935354  0.19533061  0.37399325    -0.07700
C1557       C  0.66715516  0.22798275  0.36080010    -0.02200
C1558       C  0.69856284  0.23046684  0.34643525     0.04600
N1559       N  0.70179685  0.24781951  0.31317148     0.67100
H1560       H  0.74606263  0.21567237  0.34707403     0.16000
H1561       H  0.63500004  0.19049247  0.38409428     0.15700
N1562       N  0.66987241  0.13464304  0.37867755     0.74800
O1563       O  0.71059967  0.27807631  0.31193673    -0.38600
O1564       O  0.68882424  0.23386921  0.28592597    -0.38600
O1565       O  0.67517377  0.12220926  0.41023994    -0.39300
O1566       O  0.64595162  0.12401481  0.36033438    -0.39300
C1567       C  0.80910001  0.20708585  0.32497755    -0.11600
C1568       C  0.83330390  0.20422898  0.35171413     0.05400
C1569       C  0.83268710  0.17322440  0.37186510    -0.06900
C1570       C  0.80438949  0.15226570  0.36972468    -0.07700
C1571       C  0.77765933  0.15954580  0.34516616    -0.02200
C1572       C  0.78572704  0.18330888  0.31805470     0.04600
N1573       N  0.77053529  0.18431189  0.28303927     0.67100
H1574       H  0.80825710  0.22946864  0.30952689     0.16000
H1575       H  0.80477652  0.12938732  0.38580258     0.15700
N1576       N  0.86056309  0.16089784  0.39168160     0.74800
O1577       O  0.74579688  0.20264900  0.27750023    -0.38600
O1578       O  0.78703626  0.17394018  0.25591468    -0.38600
O1579       O  0.85705539  0.14851644  0.42357548    -0.39300
O1580       O  0.88719251  0.15619147  0.37470582    -0.39300
C1581       C  0.74468196  0.14092743  0.84621928    -0.01800
C1582       C  0.64665760  0.25772228  0.86008800    -0.01800
C1583       C  0.85938030  0.23416742  0.85187212    -0.01800
C1584       C  0.75809872  0.34787961  0.86019914    -0.01800
C1585       C  0.73774466  0.14903304  0.68585096    -0.01800
C1586       C  0.64080560  0.26832471  0.69242364    -0.01800
C1587       C  0.85682037  0.23660814  0.68886807    -0.01800
C1588       C  0.75844691  0.35449701  0.68991338    -0.01800
O1589       O  0.53319562  0.22084910  0.56561002    -0.71100
O1590       O  0.97115544  0.20809615  0.98712986    -0.71400
O1591       O  0.53792974  0.21769823  0.99083151    -0.71200
O1592       O  0.96940193  0.21359625  0.55958546    -0.71200
O1593       O  0.96410584  0.26810660  0.55661910    -0.71200
O1594       O  0.52935372  0.27146756  0.98385263    -0.71200
O1595       O  0.96322492  0.26223579  0.98373979    -0.71100
O1596       O  0.52716591  0.27502008  0.56054765    -0.71300
V1597       V  0.50256652  0.21613686  0.52614941     1.35200
V1598       V  0.99699381  0.26805434  0.51973030     1.35200
C1599       C  0.54015306  0.25000848  0.57702224     0.78100
C1600       C  0.95631123  0.23300781  0.97263535     0.78200
C1601       C  0.54487079  0.24501581  0.97473213     0.78000
C1602       C  0.95559233  0.24045700  0.57056753     0.78000
O1603       O  0.78794095  0.47048567  0.98711180    -0.71100
O1604       O  0.77321806  0.04131787  0.55539763    -0.71400
O1605       O  0.78135781  0.47517379  0.56403920    -0.71200
O1606       O  0.77935105  0.03693954  0.98417127    -0.71200
O1607       O  0.72676024  0.03168902  0.98129743    -0.71200
O1608       O  0.72942754  0.46615393  0.55858414    -0.71200
O1609       O  0.72101625  0.03245015  0.55407706    -0.71100
O1610       O  0.73561768  0.46593561  0.98020084    -0.71300
V1611       V  0.77806505  0.50625462  0.52378613     1.35200
V1612       V  0.72780742  0.49938513  0.52030914     1.35200
C1613       C  0.76416749  0.45639030  0.97136011     0.78100
C1614       C  0.74479720  0.04863993  0.56693317     0.78200
C1615       C  0.75623219  0.45972380  0.57470217     0.78000
C1616       C  0.75254690  0.04509373  0.96928911     0.78000
C1617       C  0.76099460  0.44374431  0.64175207    -0.11600
C1618       C  0.75832654  0.43400957  0.60453031     0.05400
C1619       C  0.75824429  0.39953107  0.59607043    -0.06900
C1620       C  0.76052679  0.37576395  0.62449062    -0.07700
C1621       C  0.76159929  0.38457940  0.66242921    -0.02200
C1622       C  0.76185639  0.41978546  0.67085506     0.04600
N1623       N  0.76088235  0.43238144  0.70794717     0.67100
H1624       H  0.76091971  0.47035997  0.64842173     0.16000
H1625       H  0.76044263  0.34946254  0.61664328     0.15700
N1626       N  0.75587134  0.38788937  0.55867804     0.74800
O1627       O  0.78143218  0.45408318  0.71746551    -0.38600
O1628       O  0.73461970  0.43068148  0.72606886    -0.38600
O1629       O  0.77416707  0.36400038  0.54789508    -0.39300
O1630       O  0.73141475  0.39614697  0.53937202    -0.39300
C1631       C  0.87658215  0.24956500  0.62338678    -0.11600
C1632       C  0.88455509  0.23686827  0.65894896     0.05400
C1633       C  0.91724395  0.22353792  0.66307680    -0.06900
C1634       C  0.93863804  0.22316083  0.63271395    -0.07700
C1635       C  0.93081034  0.23934402  0.59978795    -0.02200
C1636       C  0.90016090  0.25482622  0.59615308     0.04600
N1637       N  0.89352138  0.27857318  0.56721863     0.67100
H1638       H  0.85226606  0.25842087  0.61718070     0.16000
H1639       H  0.96281093  0.21210704  0.63580207     0.15700
N1640       N  0.93051424  0.21052355  0.69682849     0.74800
O1641       O  0.89554509  0.26993099  0.53376857    -0.38600
O1642       O  0.89026543  0.30939323  0.57517559    -0.38600
O1643       O  0.94516487  0.18232780  0.69560976    -0.39300
O1644       O  0.93951661  0.23126736  0.72104698    -0.38900
C1645       C  0.84063061  0.30122996  0.66693554    -0.11600
C1646       C  0.83544269  0.27198156  0.68928719     0.05400
C1647       C  0.80875059  0.27644402  0.71406967    -0.06900
C1648       C  0.78492755  0.30095745  0.70903074    -0.07700
C1649       C  0.78753073  0.32791636  0.68532440    -0.02200
C1650       C  0.81744388  0.32870598  0.66451442     0.04600
N1651       N  0.82653724  0.35749113  0.64327369     0.67100
H1652       H  0.86348954  0.30435502  0.65259281     0.16000
H1653       H  0.76499502  0.30146863  0.72806610     0.15700
N1654       N  0.80675490  0.25907725  0.74791596     0.74800
O1655       O  0.83445578  0.38425243  0.65955631    -0.38600
O1656       O  0.83353951  0.35393210  0.60948219    -0.38600
O1657       O  0.80893614  0.22776809  0.74771739    -0.39300
O1658       O  0.79707577  0.27436890  0.77667703    -0.39300
C1659       C  0.57954381  0.28571121  0.61048725    -0.11600
C1660       C  0.56298172  0.25537007  0.60863829     0.05400
C1661       C  0.56734030  0.23228770  0.63795872    -0.06900
C1662       C  0.58921594  0.23935283  0.66696260    -0.07700
C1663       C  0.60998219  0.26758852  0.66613498    -0.02200
C1664       C  0.60210500  0.29247787  0.63848777     0.04600
N1665       N  0.61427524  0.32595073  0.63883866     0.67100
H1666       H  0.57504582  0.30483739  0.58962887     0.16000
H1667       H  0.59219008  0.22047498  0.68815401     0.15700
N1668       N  0.55033500  0.20114476  0.63850255     0.74800
O1669       O  0.63361081  0.33474732  0.61349469    -0.38600
O1670       O  0.59764258  0.34848678  0.65514572    -0.38600
O1671       O  0.56373644  0.17519082  0.62476262    -0.39300
O1672       O  0.52577643  0.19801954  0.65925787    -0.39300
C1673       C  0.72333683  0.30612370  0.65901477    -0.11600
C1674       C  0.72451086  0.33730935  0.67779382     0.05400
C1675       C  0.69281075  0.35228849  0.68315132    -0.06900
C1676       C  0.66570086  0.33095706  0.68909995    -0.07700
C1677       C  0.66608695  0.29678658  0.67800721    -0.02200
C1678       C  0.69353970  0.28874175  0.65440804     0.04600
N1679       N  0.69126647  0.26385152  0.62563546     0.67100
H1680       H  0.74511341  0.29613396  0.64601433     0.16000
H1681       H  0.64400798  0.34226671  0.69993040     0.15700
N1682       N  0.68843922  0.38777803  0.68848066     0.74800
O1683       O  0.66521065  0.26142038  0.60735175    -0.38600
O1684       O  0.71638435  0.24805290  0.61454766    -0.38600
O1685       O  0.69108773  0.40692764  0.66082600    -0.39300
O1686       O  0.67290175  0.39843090  0.71641912    -0.39300
C1687       C  0.74233177  0.13171227  0.61911543    -0.11600
C1688       C  0.73425107  0.12168976  0.65537102     0.05400
C1689       C  0.72573837  0.08697319  0.66036783    -0.06900
C1690       C  0.72874562  0.06415770  0.63079281    -0.07700
C1691       C  0.73960792  0.07431917  0.59606914    -0.02200
C1692       C  0.74570669  0.10853805  0.59020467     0.04600
N1693       N  0.75570495  0.12042246  0.55501317     0.67100
H1694       H  0.74751477  0.15789990  0.61337546     0.16000
H1695       H  0.72275046  0.03794176  0.63522549     0.15700
N1696       N  0.71134375  0.07403932  0.69335611     0.74800
O1697       O  0.73400573  0.12971769  0.53235563    -0.38600
O1698       O  0.78441725  0.13104685  0.55143835    -0.38600
O1699       O  0.68125490  0.06780778  0.69242098    -0.39300
O1700       O  0.72902879  0.05640700  0.71459038    -0.39300
C1701       C  0.65741433  0.20717243  0.66414481    -0.11600
C1702       C  0.66255306  0.23493722  0.68934859     0.05400
C1703       C  0.69241736  0.23313570  0.70944586    -0.06900
C1704       C  0.71402660  0.20750461  0.70084624    -0.07700
C1705       C  0.70943742  0.17789388  0.68156333    -0.02200
C1706       C  0.67986460  0.17895630  0.66060289     0.04600
N1707       N  0.67188597  0.15267423  0.63544600     0.67100
H1708       H  0.63712077  0.20732010  0.64535093     0.16000
H1709       H  0.72514402  0.22514366  0.68201340     0.15700
N1710       N  0.70738400  0.26087412  0.72944312     0.74800
O1711       O  0.65594377  0.12781667  0.64693014    -0.38600
O1712       O  0.67345811  0.15823445  0.60112866    -0.38600
O1713       O  0.69143779  0.28518110  0.74296931    -0.39300
O1714       O  0.73596088  0.25637089  0.74141861    -0.39300
C1715       C  0.77592416  0.20109318  0.67754127    -0.11600
C1716       C  0.77396744  0.16597821  0.67960193     0.05400
C1717       C  0.80643794  0.15074583  0.67591329    -0.06900
C1718       C  0.83522846  0.17211895  0.67617004    -0.07700
C1719       C  0.83188837  0.20804322  0.67673899    -0.02200
C1720       C  0.80182421  0.21782565  0.66250660     0.04600
N1721       N  0.79966556  0.22745881  0.62450572     0.67100
H1722       H  0.77093569  0.21178983  0.70415487     0.16000
H1723       H  0.85930250  0.16071412  0.67496326     0.15700
N1724       N  0.81146067  0.11520968  0.67170058     0.74800
O1725       O  0.81129692  0.20851373  0.59955988    -0.38600
O1726       O  0.78497442  0.25436825  0.61562610    -0.38600
O1727       O  0.80466635  0.10168078  0.64120206    -0.39300
O1728       O  0.83149377  0.10022587  0.69271427    -0.39300
C1729       C  0.78456703  0.36666467  0.79611941    -0.11600
C1730       C  0.75609429  0.35763732  0.81651002     0.05400
C1731       C  0.72813064  0.35639651  0.79322598    -0.06900
C1732       C  0.73073892  0.35444465  0.75497846    -0.07700
C1733       C  0.75815612  0.36267114  0.73387574    -0.02200
C1734       C  0.78586622  0.37030460  0.75647146     0.04600
N1735       N  0.81636212  0.37954595  0.74036374     0.67100
H1736       H  0.80640492  0.37123575  0.81089436     0.16000
H1737       H  0.70896540  0.34602673  0.74313692     0.15700
N1738       N  0.69568996  0.36323607  0.80467354     0.74800
O1739       O  0.82613043  0.40922403  0.74490401    -0.38600
O1740       O  0.83741135  0.35680822  0.73400262    -0.38600
O1741       O  0.68539305  0.39327096  0.80305815    -0.39300
O1742       O  0.67545447  0.34062091  0.79833288    -0.39300
C1743       C  0.78057382  0.37420657  0.91961104    -0.11600
C1744       C  0.76450806  0.37943355  0.88538444     0.05400
C1745       C  0.75043114  0.41232573  0.88014121    -0.06900
C1746       C  0.75189976  0.43657428  0.90846865    -0.07700
C1747       C  0.76858499  0.43082882  0.94156127    -0.02200
C1748       C  0.78515412  0.39972956  0.94617993     0.04600
N1749       N  0.80639216  0.39313234  0.97721471     0.67100
H1750       H  0.79055593  0.34959682  0.92587237     0.16000
H1751       H  0.73975875  0.46075598  0.90440610     0.15700
N1752       N  0.73394650  0.42252201  0.84712109     0.74800
O1753       O  0.81332817  0.36314459  0.98623112    -0.38600
O1754       O  0.82363151  0.41632421  0.99027846    -0.38600
O1755       O  0.70644142  0.43703596  0.85038289    -0.39300
O1756       O  0.75089089  0.42914726  0.81893809    -0.39300
C1757       C  0.87842433  0.20609056  0.79120601    -0.11600
C1758       C  0.87328905  0.23676995  0.81036620     0.05400
C1759       C  0.87662987  0.26597118  0.78736371    -0.06900
C1760       C  0.87876966  0.26284951  0.74852794    -0.07700
C1761       C  0.87147833  0.23264493  0.72973733    -0.02200
C1762       C  0.87447675  0.20302124  0.75263217     0.04600
N1763       N  0.87323474  0.16923521  0.73934277     0.67100
H1764       H  0.88092069  0.18297589  0.80686422     0.16000
H1765       H  0.88180932  0.28578875  0.73273992     0.15700
N1766       N  0.87772155  0.29947031  0.80116278     0.74800
O1767       O  0.89971036  0.15400953  0.73237117    -0.38600
O1768       O  0.84963547  0.15153357  0.74970279    -0.38600
O1769       O  0.90503517  0.31181097  0.80894721    -0.39300
O1770       O  0.85467154  0.31937312  0.79269484    -0.39300
C1771       C  0.87750905  0.22280748  0.91826887    -0.11600
C1772       C  0.88699337  0.23087792  0.88174110     0.05400
C1773       C  0.92100462  0.23748499  0.87624992    -0.06900
C1774       C  0.94254777  0.23731616  0.90649986    -0.07700
C1775       C  0.93252196  0.22878433  0.94215048    -0.02200
C1776       C  0.89966293  0.21986306  0.94791362     0.04600
N1777       N  0.88816593  0.20752486  0.98308365     0.67100
H1778       H  0.85257780  0.21626214  0.92339441     0.16000
H1779       H  0.96788413  0.24375247  0.90193259     0.15700
N1780       N  0.93509404  0.24465419  0.84095140     0.74800
O1781       O  0.85772069  0.21970833  0.49340790    -0.38600
O1782       O  0.90587073  0.20010212  0.50751213    -0.38600
O1783       O  0.95090918  0.27150422  0.83731294    -0.39300
O1784       O  0.94232545  0.22024059  0.82001048    -0.39300
C1785       C  0.84627652  0.29918229  0.86743974    -0.11600
C1786       C  0.83645576  0.26562200  0.86283507     0.05400
C1787       C  0.80347741  0.26124775  0.87166778    -0.06900
C1788       C  0.78094430  0.28599800  0.86068745    -0.07700
C1789       C  0.78819838  0.32069537  0.86287126    -0.02200
C1790       C  0.82317674  0.32677945  0.86785342     0.04600
N1791       N  0.83687553  0.35946594  0.87383802     0.67100
H1792       H  0.87203738  0.30430533  0.87001036     0.16000
H1793       H  0.75693502  0.27735288  0.85472137     0.15700
N1794       N  0.79644464  0.24288089  0.90476468     0.74800
O1795       O  0.84721075  0.36587724  0.90589313    -0.38600
O1796       O  0.85141062  0.37345433  0.84729563    -0.38600
O1797       O  0.80761543  0.25322229  0.93517427    -0.39300
O1798       O  0.77663953  0.21893657  0.90478098    -0.39300
C1799       C  0.62981908  0.29310432  0.79925970    -0.11600
C1800       C  0.63420613  0.26188393  0.81756811     0.05400
C1801       C  0.62496220  0.23416868  0.79477174    -0.06900
C1802       C  0.62427463  0.23731543  0.75529213    -0.07700
C1803       C  0.62918928  0.26827707  0.73600169    -0.02200
C1804       C  0.62506367  0.29661400  0.76003367     0.04600
N1805       N  0.60900308  0.32665200  0.74719549     0.67100
H1806       H  0.62633229  0.31504968  0.81584270     0.16000
H1807       H  0.61994754  0.21484870  0.73960066     0.15700
N1808       N  0.61580343  0.20272794  0.81092737     0.74800
O1809       O  0.58478922  0.32429373  0.72590923    -0.38600
O1810       O  0.61471132  0.35468574  0.76217147    -0.38600
O1811       O  0.58904018  0.20068117  0.82800131    -0.39300
O1812       O  0.63068192  0.17593964  0.80205109    -0.39300
C1813       C  0.62618371  0.24251367  0.92457465    -0.11600
C1814       C  0.61809307  0.25386741  0.88845268     0.05400
C1815       C  0.58448524  0.26253111  0.88203896    -0.06900
C1816       C  0.56131138  0.25874371  0.91045020    -0.07700
C1817       C  0.56996713  0.24638832  0.94534387    -0.02200
C1818       C  0.60267267  0.23789293  0.95222377     0.04600
N1819       N  0.61267820  0.22585445  0.98775145     0.67100
H1820       H  0.65116752  0.23642881  0.93160965     0.16000
H1821       H  0.53614237  0.26612690  0.90528676     0.15700
N1822       N  0.57313819  0.27797724  0.84862632     0.74800
O1823       O  0.61455540  0.19412930  0.49075728    -0.38600
O1824       O  0.62205484  0.24477664  0.51215115    -0.38600
O1825       O  0.55597972  0.26097708  0.82676193    -0.39300
O1826       O  0.57040926  0.30965258  0.84755587    -0.39300
C1827       C  0.69288981  0.34510422  0.87388187    -0.11600
C1828       C  0.72484495  0.33143427  0.87714584     0.05400
C1829       C  0.72344799  0.30320047  0.90159047    -0.06900
C1830       C  0.69754385  0.28025001  0.89763666    -0.07700
C1831       C  0.66969668  0.28776204  0.87547434    -0.02200
C1832       C  0.66485694  0.32351301  0.87300505     0.04600
N1833       N  0.63300995  0.33851280  0.87668610     0.67100
H1834       H  0.68962906  0.37204490  0.87120030     0.16000
H1835       H  0.69916756  0.25673321  0.91258944     0.15700
N1836       N  0.74208820  0.30182283  0.93512820     0.74800
O1837       O  0.61469542  0.32898649  0.90263942    -0.38600
O1838       O  0.62657824  0.36613132  0.86078993    -0.38600
O1839       O  0.74182506  0.32753839  0.95558699    -0.39300
O1840       O  0.74696784  0.27366870  0.95047378    -0.39300
C1841       C  0.70817039  0.13669454  0.78792677    -0.11600
C1842       C  0.73718440  0.12706301  0.80603416     0.05400
C1843       C  0.76084232  0.11042392  0.78284746    -0.06900
C1844       C  0.75899104  0.11409013  0.74364283    -0.07700
C1845       C  0.73401761  0.13355598  0.72644800    -0.02200
C1846       C  0.70580434  0.13841340  0.74925004     0.04600
N1847       N  0.67380781  0.14259944  0.73429373     0.67100
H1848       H  0.68680759  0.14379772  0.80351768     0.16000
H1849       H  0.77874598  0.10411104  0.72735113     0.15700
N1850       N  0.78896430  0.09366160  0.79801553     0.74800
O1851       O  0.65615307  0.11703222  0.73124839    -0.38600
O1852       O  0.65979172  0.17072553  0.73805285    -0.38600
O1853       O  0.78937423  0.06192927  0.79936245    -0.39300
O1854       O  0.81590418  0.10861861  0.79805038    -0.39300
C1855       C  0.75258988  0.12508544  0.91251484    -0.11600
C1856       C  0.74392887  0.11378346  0.87699390     0.05400
C1857       C  0.73546302  0.07911559  0.87335518    -0.06900
C1858       C  0.73824675  0.05768717  0.90426205    -0.07700
C1859       C  0.75125703  0.06884290  0.93785003    -0.02200
C1860       C  0.76045624  0.10282258  0.94112373     0.04600
N1861       N  0.77966329  0.11510519  0.97141853     0.67100
H1862       H  0.75737580  0.15159770  0.91643329     0.16000
H1863       H  0.73050134  0.03178005  0.90186771     0.15700
N1864       N  0.72171364  0.06525899  0.84035255     0.74800
O1865       O  0.80266629  0.09714623  0.98415303    -0.38600
O1866       O  0.77986457  0.14633354  0.97812135    -0.38600
O1867       O  0.73299403  0.03771404  0.82801155    -0.39300
O1868       O  0.69332105  0.07425023  0.83081111    -0.39300
C1869       C  0.72512528  0.20370511  0.85284863    -0.11600
C1870       C  0.71806731  0.16955843  0.85800744     0.05400
C1871       C  0.68490758  0.16423893  0.87048963    -0.06900
C1872       C  0.66211817  0.19197978  0.87403436    -0.07700
C1873       C  0.66954135  0.22460325  0.86052165    -0.02200
C1874       C  0.70096109  0.22741989  0.84617800     0.04600
N1875       N  0.70406661  0.24482495  0.81291813     0.67100
H1876       H  0.74854559  0.21291460  0.84647270     0.16000
H1877       H  0.63785620  0.18698027  0.88432061     0.15700
N1878       N  0.67314286  0.13140638  0.87890312     0.74800
O1879       O  0.71149271  0.27551010  0.81181258    -0.38600
O1880       O  0.69133592  0.23052597  0.78573937    -0.38600
O1881       O  0.67844916  0.11935532  0.91064308    -0.39300
O1882       O  0.64934700  0.12039243  0.86063661    -0.39300
C1883       C  0.81147675  0.20468287  0.82412032    -0.11600
C1884       C  0.83573319  0.20208020  0.85074077     0.05400
C1885       C  0.83576729  0.17072848  0.87042067    -0.06900
C1886       C  0.80754937  0.14965424  0.86867665    -0.07700
C1887       C  0.78056290  0.15692492  0.84454542    -0.02200
C1888       C  0.78827927  0.18068885  0.81734599     0.04600
N1889       N  0.77272789  0.18157224  0.78254424     0.67100
H1890       H  0.81033025  0.22708091  0.80884115     0.16000
H1891       H  0.80814417  0.12667431  0.88460552     0.15700
N1892       N  0.86419594  0.15807985  0.88905585     0.74800
O1893       O  0.74765351  0.19944246  0.77733364    -0.38600
O1894       O  0.78884373  0.17113278  0.75520508    -0.38600
O1895       O  0.86141848  0.14407567  0.92022785    -0.39300
O1896       O  0.89076627  0.15503872  0.87155905    -0.39300
C1897       C  0.74221545  0.64070930  0.34519735    -0.01800
C1898       C  0.64537452  0.75855120  0.36106387    -0.01800
C1899       C  0.85801221  0.73263596  0.35025252    -0.01800
C1900       C  0.75814199  0.84706508  0.35972680    -0.01800
C1901       C  0.73621492  0.64998013  0.18497613    -0.01800
C1902       C  0.64011323  0.77001993  0.19364680    -0.01800
C1903       C  0.85622665  0.73610758  0.18709321    -0.01800
C1904       C  0.75850088  0.85440853  0.18917292    -0.01800
O1905       O  0.53521701  0.72279677  0.06548280    -0.71100
O1906       O  0.96916826  0.70636035  0.48584403    -0.71400
O1907       O  0.53696673  0.71751122  0.49152408    -0.71200
O1908       O  0.97250660  0.71524851  0.06037010    -0.71200
O1909       O  0.96602825  0.76962906  0.05757638    -0.71200
O1910       O  0.52673055  0.77100724  0.48479562    -0.71200
O1911       O  0.96072178  0.76039182  0.48170310    -0.71100
O1912       O  0.52958869  0.77695558  0.05974692    -0.71300
V1913       V  0.50489405  0.71793935  0.02590876     1.35200
V1914       V  0.99916196  0.77050301  0.02077739     1.35200
C1915       C  0.54200246  0.75200137  0.07680614     0.78100
C1916       C  0.95432173  0.73097535  0.47083166     0.78200
C1917       C  0.54327720  0.74516730  0.47574699     0.78000
C1918       C  0.95782113  0.74170553  0.07120481     0.78000
O1919       O  0.78677851  0.96973053  0.48618587    -0.71100
O1920       O  0.77307688  0.54331181  0.05462554    -0.71400
O1921       O  0.78256205  0.97560268  0.06498343    -0.71200
O1922       O  0.77702553  0.53740526  0.48389905    -0.71200
O1923       O  0.72441732  0.53214669  0.48178807    -0.71200
O1924       O  0.73081091  0.96617146  0.05827896    -0.71200
O1925       O  0.72090566  0.53450875  0.05193891    -0.71100
O1926       O  0.73436740  0.96477647  0.48067249    -0.71300
V1927       V  0.77985684  0.00621507  0.02438343     1.35200
V1928       V  0.72968767  0.99915474  0.01994181     1.35200
C1929       C  0.76281497  0.95550579  0.47099471     0.78100
C1930       C  0.74439801  0.55083889  0.06519235     0.78200
C1931       C  0.75735665  0.95995650  0.07494921     0.78000
C1932       C  0.75006741  0.54556491  0.46934726     0.78000
C1933       C  0.76323721  0.94356726  0.14155519    -0.11600
C1934       C  0.75909377  0.93413732  0.10446531     0.05400
C1935       C  0.75709791  0.89983035  0.09575224    -0.06900
C1936       C  0.75956100  0.87582794  0.12383299    -0.07700
C1937       C  0.76187554  0.88441506  0.16177957    -0.02200
C1938       C  0.76360564  0.91947795  0.17044469     0.04600
N1939       N  0.76352109  0.93187370  0.20760813     0.67100
H1940       H  0.76446722  0.97010878  0.14834244     0.16000
H1941       H  0.75839118  0.84962703  0.11577566     0.15700
N1942       N  0.75230973  0.88868141  0.05848313     0.74800
O1943       O  0.78496809  0.95269852  0.21694786    -0.38600
O1944       O  0.73733700  0.93118776  0.22599213    -0.38600
O1945       O  0.76968780  0.86480454  0.04590580    -0.39300
O1946       O  0.72657469  0.89711837  0.04152404    -0.39300
C1947       C  0.87692788  0.74816663  0.12165549    -0.11600
C1948       C  0.88454962  0.73647451  0.15769960     0.05400
C1949       C  0.91778389  0.72503895  0.16316090    -0.06900
C1950       C  0.93985316  0.72477611  0.13336219    -0.07700
C1951       C  0.93219745  0.73982969  0.09970919    -0.02200
C1952       C  0.90094071  0.75385654  0.09486047     0.04600
N1953       N  0.89395660  0.77677768  0.06519976     0.67100
H1954       H  0.85245426  0.75624449  0.11490059     0.16000
H1955       H  0.96442329  0.71511778  0.13758557     0.15700
N1956       N  0.93117465  0.71480086  0.19800312     0.74800
O1957       O  0.89931974  0.76848995  0.03209572    -0.38600
O1958       O  0.88667800  0.80704002  0.07258025    -0.38600
O1959       O  0.94665306  0.68709166  0.19938078    -0.39300
O1960       O  0.93931979  0.73749851  0.22043428    -0.38900
C1961       C  0.83976031  0.80031781  0.16449935    -0.11600
C1962       C  0.83491154  0.77144195  0.18746401     0.05400
C1963       C  0.80835159  0.77604295  0.21249453    -0.06900
C1964       C  0.78451983  0.80053699  0.20756852    -0.07700
C1965       C  0.78715476  0.82749058  0.18392444    -0.02200
C1966       C  0.81672357  0.82793502  0.16244037     0.04600
N1967       N  0.82568934  0.85655562  0.14088733     0.67100
H1968       H  0.86230518  0.80316205  0.14948750     0.16000
H1969       H  0.76469926  0.80119475  0.22678713     0.15700
N1970       N  0.80658541  0.75899332  0.24656399     0.74800
O1971       O  0.83481175  0.88301547  0.15692072    -0.38600
O1972       O  0.83151282  0.85292977  0.10682114    -0.38600
O1973       O  0.80819548  0.72766088  0.24668225    -0.39300
O1974       O  0.79775725  0.77472042  0.27538482    -0.39300
C1975       C  0.57926237  0.78830190  0.11227358    -0.11600
C1976       C  0.56372864  0.75747153  0.10920390     0.05400
C1977       C  0.56763402  0.73411185  0.13832319    -0.06900
C1978       C  0.58864966  0.74118868  0.16804542    -0.07700
C1979       C  0.60903508  0.76967769  0.16796241    -0.02200
C1980       C  0.60079952  0.79515526  0.14117631     0.04600
N1981       N  0.61099052  0.82927825  0.14376390     0.67100
H1982       H  0.57457022  0.80780645  0.09189632     0.16000
H1983       H  0.59158235  0.72202771  0.18893283     0.15700
N1984       N  0.55117995  0.70265072  0.13786101     0.74800
O1985       O  0.62892512  0.84092283  0.11851568    -0.38600
O1986       O  0.59352539  0.84963685  0.16223179    -0.38600
O1987       O  0.56576160  0.67685901  0.12530965    -0.39300
O1988       O  0.52554060  0.69920693  0.15678082    -0.39300
C1989       C  0.72244217  0.80650316  0.15874737    -0.11600
C1990       C  0.72423998  0.83771919  0.17742702     0.05400
C1991       C  0.69281369  0.85334823  0.18261453    -0.06900
C1992       C  0.66556868  0.83244664  0.18957266    -0.07700
C1993       C  0.66533323  0.79824546  0.17862525    -0.02200
C1994       C  0.69226511  0.78979462  0.15447382     0.04600
N1995       N  0.68901997  0.76526525  0.12548357     0.67100
H1996       H  0.74393163  0.79603759  0.14549732     0.16000
H1997       H  0.64431709  0.84405292  0.20113804     0.15700
N1998       N  0.68908370  0.88899942  0.18748725     0.74800
O1999       O  0.66266312  0.76367887  0.10762112    -0.38600
O2000       O  0.71358125  0.74884960  0.11389480    -0.38600
O2001       O  0.69221857  0.90784553  0.15965374    -0.39300
O2002       O  0.67391652  0.90032730  0.21537226    -0.39300
C2003       C  0.73944234  0.63364283  0.11787901    -0.11600
C2004       C  0.73238101  0.62295436  0.15420305     0.05400
C2005       C  0.72522145  0.58785032  0.15895608    -0.06900
C2006       C  0.72831609  0.56552293  0.12900503    -0.07700
C2007       C  0.73850668  0.57635277  0.09429367    -0.02200
C2008       C  0.74331976  0.61085283  0.08865392     0.04600
N2009       N  0.75408369  0.62323816  0.05396753     0.67100
H2010       H  0.74402450  0.66001899  0.11246997     0.16000
H2011       H  0.72345864  0.53901725  0.13329283     0.15700
N2012       N  0.71341132  0.57358125  0.19259559     0.74800
O2013       O  0.73340385  0.63702531  0.03280883    -0.38600
O2014       O  0.78386624  0.63025675  0.05051205    -0.38600
O2015       O  0.68347861  0.56675235  0.19418447    -0.39300
O2016       O  0.73287256  0.55556362  0.21134782    -0.39300
C2017       C  0.65627962  0.70897320  0.16467305    -0.11600
C2018       C  0.66171043  0.73647715  0.19014898     0.05400
C2019       C  0.69180170  0.73436335  0.20983701    -0.06900
C2020       C  0.71324644  0.70869157  0.20070402    -0.07700
C2021       C  0.70820799  0.67920884  0.18126020    -0.02200
C2022       C  0.67844423  0.68061192  0.16068569     0.04600
N2023       N  0.66989130  0.65444339  0.13560562     0.67100
H2024       H  0.63599474  0.70941028  0.14590179     0.16000
H2025       H  0.72446767  0.72640046  0.18203875     0.15700
N2026       N  0.70706205  0.76180380  0.23006036     0.74800
O2027       O  0.65509187  0.62901301  0.14756437    -0.38600
O2028       O  0.66992852  0.66038918  0.10132073    -0.38600
O2029       O  0.69147989  0.78658010  0.24310004    -0.39300
O2030       O  0.73542455  0.75675940  0.24248200    -0.39300
C2031       C  0.77495104  0.70165925  0.17609360    -0.11600
C2032       C  0.77255086  0.66654711  0.17842538     0.05400
C2033       C  0.80475917  0.65084242  0.17421106    -0.06900
C2034       C  0.83384899  0.67177923  0.17403233    -0.07700
C2035       C  0.83101943  0.70774994  0.17470076    -0.02200
C2036       C  0.80100313  0.71778448  0.16041575     0.04600
N2037       N  0.79880881  0.72620455  0.12204338     0.67100
H2038       H  0.77038140  0.71264470  0.20265165     0.16000
H2039       H  0.85769959  0.66001657  0.17207484     0.15700
N2040       N  0.80919237  0.61529325  0.16943574     0.74800
O2041       O  0.81205631  0.70744875  0.09793993    -0.38600
O2042       O  0.78173424  0.75120618  0.11194345    -0.38600
O2043       O  0.80228678  0.60238504  0.13864541    -0.39300
O2044       O  0.82909131  0.59972751  0.19010609    -0.39300
C2045       C  0.78544857  0.86447402  0.29544406    -0.11600
C2046       C  0.75663633  0.85654044  0.31591013     0.05400
C2047       C  0.72862774  0.85694411  0.29274353    -0.06900
C2048       C  0.73084705  0.85637496  0.25438056    -0.07700
C2049       C  0.75869842  0.86261711  0.23320465    -0.02200
C2050       C  0.78681300  0.86853840  0.25581604     0.04600
N2051       N  0.81746318  0.87741715  0.23978084     0.67100
H2052       H  0.80758100  0.86776463  0.31008712     0.16000
H2053       H  0.70841923  0.85013011  0.24257799     0.15700
N2054       N  0.69616578  0.86090949  0.30512977     0.74800
O2055       O  0.82810947  0.90658607  0.24554035    -0.38600
O2056       O  0.83780908  0.85435974  0.23205360    -0.38600
O2057       O  0.68349397  0.89004264  0.30450940    -0.39300
O2058       O  0.67783121  0.83662274  0.29890981    -0.39300
C2059       C  0.77986714  0.87341322  0.41921485    -0.11600
C2060       C  0.76460667  0.87874067  0.38461388     0.05400
C2061       C  0.75072594  0.91166786  0.37896838    -0.06900
C2062       C  0.75117117  0.93574000  0.40763037    -0.07700
C2063       C  0.76714170  0.92985849  0.44121676    -0.02200
C2064       C  0.78377587  0.89877455  0.44605844     0.04600
N2065       N  0.80429028  0.89187913  0.47767196     0.67100
H2066       H  0.78970360  0.84877084  0.42557660     0.16000
H2067       H  0.73919126  0.95995898  0.40329560     0.15700
N2068       N  0.73619123  0.92220292  0.34486576     0.74800
O2069       O  0.81167500  0.86182333  0.48595882    -0.38600
O2070       O  0.82060629  0.91507226  0.49217831    -0.38600
O2071       O  0.70879853  0.93717339  0.34609419    -0.39300
O2072       O  0.75473028  0.92832569  0.31785576    -0.39300
C2073       C  0.87647553  0.70475970  0.28923569    -0.11600
C2074       C  0.87170293  0.73536288  0.30870082     0.05400
C2075       C  0.87549201  0.76474258  0.28607174    -0.06900
C2076       C  0.87766758  0.76197287  0.24722647    -0.07700
C2077       C  0.87047750  0.73192866  0.22805482    -0.02200
C2078       C  0.87311298  0.70211457  0.25054856     0.04600
N2079       N  0.87166562  0.66857840  0.23659442     0.67100
H2080       H  0.87857421  0.68147719  0.30463825     0.16000
H2081       H  0.88083956  0.78503654  0.23168919     0.15700
N2082       N  0.87690771  0.79810020  0.30025041     0.74800
O2083       O  0.89748938  0.65450126  0.22508227    -0.38600
O2084       O  0.84923001  0.64992495  0.24828425    -0.38600
O2085       O  0.90438860  0.81022389  0.30768477    -0.39300
O2086       O  0.85390817  0.81822761  0.29226398    -0.39300
C2087       C  0.87620358  0.72006657  0.41617690    -0.11600
C2088       C  0.88566538  0.72876634  0.37983714     0.05400
C2089       C  0.91961396  0.73565238  0.37440844    -0.06900
C2090       C  0.94105229  0.73545765  0.40471239    -0.07700
C2091       C  0.93101627  0.72623790  0.44013746    -0.02200
C2092       C  0.89838168  0.71652600  0.44563024     0.04600
N2093       N  0.88718126  0.70271469  0.48025934     0.67100
H2094       H  0.85128628  0.71343862  0.42124014     0.16000
H2095       H  0.96629911  0.74235846  0.40038103     0.15700
N2096       N  0.93371459  0.74309327  0.33917382     0.74800
O2097       O  0.86053475  0.71729792  0.99178872    -0.38600
O2098       O  0.90902280  0.69890741  0.00627494    -0.38600
O2099       O  0.94996221  0.76970560  0.33591924    -0.39300
O2100       O  0.94046731  0.71887738  0.31776876    -0.39300
C2101       C  0.84582349  0.79770480  0.36678277    -0.11600
C2102       C  0.83562820  0.76428075  0.36183374     0.05400
C2103       C  0.80274529  0.76015620  0.37112357    -0.06900
C2104       C  0.78036591  0.78507335  0.36041762    -0.07700
C2105       C  0.78792459  0.81966525  0.36275235    -0.02200
C2106       C  0.82292007  0.82547092  0.36776138     0.04600
N2107       N  0.83672338  0.85800325  0.37440107     0.67100
H2108       H  0.87164448  0.80258108  0.36919924     0.16000
H2109       H  0.75628577  0.77661601  0.35462365     0.15700
N2110       N  0.79586960  0.74177769  0.40425022     0.74800
O2111       O  0.84679176  0.86399536  0.40666467    -0.38600
O2112       O  0.85132968  0.87244529  0.34820834    -0.38600
O2113       O  0.80760885  0.75180213  0.43451476    -0.39300
O2114       O  0.77556021  0.71828605  0.40450280    -0.39300
C2115       C  0.62876946  0.79431743  0.30062195    -0.11600
C2116       C  0.63280841  0.76299442  0.31869525     0.05400
C2117       C  0.62356621  0.73547667  0.29561321    -0.06900
C2118       C  0.62338975  0.73886306  0.25617254    -0.07700
C2119       C  0.62877652  0.76989975  0.23722463    -0.02200
C2120       C  0.62476336  0.79812514  0.26140436     0.04600
N2121       N  0.60924499  0.82844404  0.24873944     0.67100
H2122       H  0.62567356  0.81635615  0.31716046     0.16000
H2123       H  0.61920176  0.71649396  0.24027600     0.15700
N2124       N  0.61417249  0.70394666  0.31138059     0.74800
O2125       O  0.58277766  0.82639626  0.23119582    -0.38600
O2126       O  0.61690280  0.85643020  0.26260684    -0.38600
O2127       O  0.58801710  0.70220637  0.32967437    -0.39300
O2128       O  0.62816681  0.67700152  0.30133197    -0.39300
C2129       C  0.62497384  0.74377440  0.42574291    -0.11600
C2130       C  0.61684204  0.75496686  0.38959136     0.05400
C2131       C  0.58321272  0.76365875  0.38325855    -0.06900
C2132       C  0.56000739  0.75972171  0.41165227    -0.07700
C2133       C  0.56865980  0.74745264  0.44659756    -0.02200
C2134       C  0.60149094  0.73940279  0.45354709     0.04600
N2135       N  0.61168209  0.72825237  0.48934269     0.67100
H2136       H  0.64998010  0.73769092  0.43268884     0.16000
H2137       H  0.53479045  0.76685801  0.40639967     0.15700
N2138       N  0.57183966  0.77913372  0.34987062     0.74800
O2139       O  0.61795279  0.69486034  0.99050616    -0.38600
O2140       O  0.62712342  0.74568601  0.01036276    -0.38600
O2141       O  0.55424716  0.76232674  0.32827066    -0.39300
O2142       O  0.56962750  0.81083952  0.34862953    -0.39300
C2143       C  0.69289750  0.84534636  0.37465499    -0.11600
C2144       C  0.72471769  0.83107039  0.37700905     0.05400
C2145       C  0.72317777  0.80286577  0.40148648    -0.06900
C2146       C  0.69688256  0.78034993  0.39799144    -0.07700
C2147       C  0.66888034  0.78830553  0.37629508    -0.02200
C2148       C  0.66451650  0.82417040  0.37403231     0.04600
N2149       N  0.63287731  0.83965442  0.37769372     0.67100
H2150       H  0.69002776  0.87233044  0.37190189     0.16000
H2151       H  0.69831902  0.75683507  0.41297711     0.15700
N2152       N  0.74187455  0.80144025  0.43496288     0.74800
O2153       O  0.61425362  0.83021721  0.40339881    -0.38600
O2154       O  0.62683478  0.86736782  0.36180810    -0.38600
O2155       O  0.74112783  0.82692047  0.45577838    -0.39300
O2156       O  0.74716707  0.77319989  0.44993697    -0.39300
C2157       C  0.70591798  0.63643589  0.28669339    -0.11600
C2158       C  0.73482487  0.62676439  0.30500636     0.05400
C2159       C  0.75879059  0.61055967  0.28184936    -0.06900
C2160       C  0.75738370  0.61483094  0.24270576    -0.07700
C2161       C  0.73236937  0.63416597  0.22543057    -0.02200
C2162       C  0.70389909  0.63852288  0.24797303     0.04600
N2163       N  0.67207762  0.64304495  0.23265338     0.67100
H2164       H  0.68446099  0.64348943  0.30216598     0.16000
H2165       H  0.77755238  0.60550513  0.22659810     0.15700
N2166       N  0.78689663  0.59385621  0.29712520     0.74800
O2167       O  0.65485584  0.61746584  0.22736177    -0.38600
O2168       O  0.65767510  0.67083269  0.23755616    -0.38600
O2169       O  0.78696204  0.56218098  0.29952349    -0.39300
O2170       O  0.81400030  0.60849136  0.29634631    -0.39300
C2171       C  0.75007680  0.62525444  0.41164840    -0.11600
C2172       C  0.74140791  0.61372101  0.37622103     0.05400
C2173       C  0.73297099  0.57902025  0.37291765    -0.06900
C2174       C  0.73560025  0.55782333  0.40410017    -0.07700
C2175       C  0.74851355  0.56921168  0.43767323    -0.02200
C2176       C  0.75784123  0.60319963  0.44050632     0.04600
N2177       N  0.77731628  0.61562851  0.47047174     0.67100
H2178       H  0.75502665  0.65176366  0.41528342     0.16000
H2179       H  0.72790265  0.53188843  0.40190044     0.15700
N2180       N  0.71951063  0.56489089  0.33990789     0.74800
O2181       O  0.80040289  0.59767797  0.48302602    -0.38600
O2182       O  0.77767237  0.64690601  0.47690176    -0.38600
O2183       O  0.73085023  0.53721073  0.32800136    -0.39300
O2184       O  0.69124971  0.57389252  0.32989078    -0.39300
C2185       C  0.72319242  0.70360999  0.35266486    -0.11600
C2186       C  0.71570807  0.66947272  0.35696584     0.05400
C2187       C  0.68248827  0.66437891  0.36940684    -0.06900
C2188       C  0.66012516  0.69241779  0.37398020    -0.07700
C2189       C  0.66791248  0.72515556  0.36108000    -0.02200
C2190       C  0.69927715  0.72768803  0.34646410     0.04600
N2191       N  0.70239892  0.74533447  0.31335769     0.67100
H2192       H  0.74671964  0.71264657  0.34646577     0.16000
H2193       H  0.63587779  0.68764184  0.38445228     0.15700
N2194       N  0.67028230  0.63152127  0.37678826     0.74800
O2195       O  0.71118524  0.77559775  0.31234128    -0.38600
O2196       O  0.68960681  0.73150207  0.28593605    -0.38600
O2197       O  0.67512899  0.61870096  0.40825615    -0.39300
O2198       O  0.64664820  0.62111390  0.35782080    -0.39300
C2199       C  0.80940776  0.70410292  0.32293719    -0.11600
C2200       C  0.83397723  0.70087410  0.34908417     0.05400
C2201       C  0.83381329  0.66934147  0.36847585    -0.06900
C2202       C  0.80522713  0.64879752  0.36713698    -0.07700
C2203       C  0.77813678  0.65656624  0.34338952    -0.02200
C2204       C  0.78588771  0.68046534  0.31630673     0.04600
N2205       N  0.77050351  0.68152903  0.28146283     0.67100
H2206       H  0.80814754  0.72670217  0.30794196     0.16000
H2207       H  0.80560809  0.62574802  0.38295632     0.15700
N2208       N  0.86231256  0.65599898  0.38641583     0.74800
O2209       O  0.74491746  0.69866843  0.27649455    -0.38600
O2210       O  0.78697811  0.67180385  0.25405743    -0.38600
O2211       O  0.85973680  0.64151404  0.41734644    -0.39300
O2212       O  0.88866775  0.65298391  0.36850531    -0.39300
C2213       C  0.74666418  0.64499025  0.84505184    -0.01800
C2214       C  0.64821581  0.76085333  0.85881983    -0.01800
C2215       C  0.86333238  0.73663605  0.85140695    -0.01800
C2216       C  0.75973174  0.85063105  0.85884102    -0.01800
C2217       C  0.73440838  0.65401125  0.68414543    -0.01800
C2218       C  0.63645475  0.77200550  0.69142395    -0.01800
C2219       C  0.85427170  0.74131453  0.69188662    -0.01800
C2220       C  0.75505382  0.85654802  0.68953050    -0.01800
O2221       O  0.53101318  0.72217390  0.56628315    -0.71100
O2222       O  0.97535165  0.71111388  0.98608569    -0.71400
O2223       O  0.53979632  0.71863891  0.99039804    -0.71200
O2224       O  0.96498621  0.71209598  0.56030259    -0.71200
O2225       O  0.95817432  0.76633830  0.55554740    -0.71200
O2226       O  0.53162966  0.77257986  0.98486381    -0.71200
O2227       O  0.96674174  0.76521536  0.98380941    -0.71100
O2228       O  0.52388926  0.77607472  0.55951718    -0.71300
V2229       V  0.50159661  0.71574528  0.52610425     1.35200
V2230       V  0.99203264  0.76655732  0.51967782     1.35200
C2231       C  0.53693773  0.75176574  0.57707020     0.78100
C2232       C  0.95990815  0.73605305  0.97249983     0.78200
C2233       C  0.54701619  0.74624961  0.97496193     0.78000
C2234       C  0.95033131  0.73883064  0.57038071     0.78000
O2235       O  0.78849207  0.97012259  0.99030671    -0.71100
O2236       O  0.77192464  0.54255090  0.55794994    -0.71400
O2237       O  0.78207761  0.97402847  0.56107251    -0.71200
O2238       O  0.77974266  0.53750061  0.98079092    -0.71200
O2239       O  0.72709929  0.53295341  0.97753185    -0.71200
O2240       O  0.73009435  0.96536208  0.55533988    -0.71200
O2241       O  0.71978129  0.53341543  0.55653050    -0.71100
O2242       O  0.73620433  0.96482973  0.98380616    -0.71300
V2243       V  0.77905560  0.00526553  0.52096163     1.35200
V2244       V  0.72874267  0.99873995  0.51745736     1.35200
C2245       C  0.76482810  0.95575083  0.97459996     0.78100
C2246       C  0.74340818  0.54998326  0.56915863     0.78200
C2247       C  0.75674681  0.95887652  0.57164504     0.78000
C2248       C  0.75309601  0.54617318  0.96581811     0.78000
C2249       C  0.76080843  0.94437312  0.63890269    -0.11600
C2250       C  0.75815092  0.93380812  0.60197320     0.05400
C2251       C  0.75643607  0.89925976  0.59444004    -0.06900
C2252       C  0.75724110  0.87621560  0.62355182    -0.07700
C2253       C  0.75859528  0.88589104  0.66124594    -0.02200
C2254       C  0.76028070  0.92120783  0.66870767     0.04600
N2255       N  0.75947119  0.93479367  0.70541560     0.67100
H2256       H  0.76173981  0.97111817  0.64474918     0.16000
H2257       H  0.75643229  0.84983432  0.61633682     0.15700
N2258       N  0.75411893  0.88679995  0.55733663     0.74800
O2259       O  0.78005470  0.95673441  0.71416583    -0.38600
O2260       O  0.73335473  0.93347351  0.72384574    -0.38600
O2261       O  0.77148400  0.86180830  0.54763364    -0.39300
O2262       O  0.73034673  0.89569416  0.53728397    -0.39300
C2263       C  0.87165607  0.74810910  0.62465929    -0.11600
C2264       C  0.88145203  0.74066271  0.66129036     0.05400
C2265       C  0.91550252  0.73209690  0.66631612    -0.06900
C2266       C  0.93602425  0.72846404  0.63538043    -0.07700
C2267       C  0.92587419  0.73817747  0.60019593    -0.02200
C2268       C  0.89396876  0.75055634  0.59551278     0.04600
N2269       N  0.88454246  0.76842984  0.56277130     0.67100
H2270       H  0.84667257  0.75485525  0.61881213     0.16000
H2271       H  0.96137645  0.72128086  0.63949046     0.15700
N2272       N  0.93147733  0.73055661  0.70151446     0.74800
O2273       O  0.88780765  0.75502750  0.53140564    -0.38600
O2274       O  0.87646194  0.79916504  0.56498207    -0.38600
O2275       O  0.94819835  0.70457778  0.70937523    -0.39300
O2276       O  0.93964452  0.75798769  0.71619164    -0.38900
C2277       C  0.83781105  0.80394072  0.66767317    -0.11600
C2278       C  0.83418702  0.77680545  0.69300699     0.05400
C2279       C  0.80827869  0.78200744  0.71873282    -0.06900
C2280       C  0.78297741  0.80435591  0.71168578    -0.07700
C2281       C  0.78414544  0.82981708  0.68558543    -0.02200
C2282       C  0.81400312  0.83060925  0.66436157     0.04600
N2283       N  0.82243439  0.85857383  0.64153626     0.67100
H2284       H  0.85964681  0.80565576  0.65108217     0.16000
H2285       H  0.76437993  0.80579685  0.73249414     0.15700
N2286       N  0.80854100  0.76929019  0.75533383     0.74800
O2287       O  0.83113781  0.88569994  0.65648376    -0.38600
O2288       O  0.82923574  0.85356314  0.60790623    -0.38600
O2289       O  0.78569937  0.75018881  0.76396484    -0.39300
O2290       O  0.81801355  0.78926139  0.78003250    -0.39300
C2291       C  0.57491119  0.78893498  0.61041955    -0.11600
C2292       C  0.55867491  0.75838397  0.60916549     0.05400
C2293       C  0.56215379  0.73634125  0.63954621    -0.06900
C2294       C  0.58335975  0.74436221  0.66879506    -0.07700
C2295       C  0.60478564  0.77189913  0.66667898    -0.02200
C2296       C  0.59707123  0.79636693  0.63855146     0.04600
N2297       N  0.60911229  0.82991819  0.63850328     0.67100
H2298       H  0.57065618  0.80751632  0.58891807     0.16000
H2299       H  0.58562555  0.72638059  0.69098962     0.15700
N2300       N  0.54538302  0.70506425  0.64067123     0.74800
O2301       O  0.62783616  0.83884338  0.61262248    -0.38600
O2302       O  0.59297229  0.85235121  0.65558085    -0.38600
O2303       O  0.55845397  0.67935177  0.62601435    -0.39300
O2304       O  0.52202221  0.70143949  0.66303385    -0.39300
C2305       C  0.71849882  0.80980001  0.65745446    -0.11600
C2306       C  0.72063486  0.83991506  0.67811571     0.05400
C2307       C  0.68929685  0.85543371  0.68420153    -0.06900
C2308       C  0.66152275  0.83473999  0.68876127    -0.07700
C2309       C  0.66111006  0.80099089  0.67616913    -0.02200
C2310       C  0.68802921  0.79367354  0.65143827     0.04600
N2311       N  0.68529248  0.76942449  0.62191832     0.67100
H2312       H  0.74006528  0.79973675  0.64434684     0.16000
H2313       H  0.63990618  0.84638368  0.69935816     0.15700
N2314       N  0.68568239  0.89091552  0.69008548     0.74800
O2315       O  0.65776144  0.76333722  0.60808254    -0.38600
O2316       O  0.71049649  0.75840528  0.60549075    -0.38600
O2317       O  0.68873949  0.91034228  0.66271969    -0.39300
O2318       O  0.67036617  0.90154733  0.71817999    -0.39300
C2319       C  0.74017437  0.63473930  0.61811845    -0.11600
C2320       C  0.73202930  0.62580349  0.65460840     0.05400
C2321       C  0.72309000  0.59146794  0.66081778    -0.06900
C2322       C  0.72651029  0.56756668  0.63231984    -0.07700
C2323       C  0.73788265  0.57654314  0.59734456    -0.02200
C2324       C  0.74370285  0.61064389  0.59010332     0.04600
N2325       N  0.75402015  0.62141128  0.55456881     0.67100
H2326       H  0.74520435  0.66073922  0.61152563     0.16000
H2327       H  0.72025869  0.54157393  0.63771029     0.15700
N2328       N  0.70756051  0.58031066  0.69392327     0.74800
O2329       O  0.73269674  0.63184762  0.53202921    -0.38600
O2330       O  0.78328581  0.63017082  0.55051593    -0.38600
O2331       O  0.67694606  0.57745837  0.69347510    -0.39300
O2332       O  0.72369644  0.56192708  0.71595211    -0.39300
C2333       C  0.64983790  0.70771526  0.66650138    -0.11600
C2334       C  0.65773193  0.73810069  0.68683777     0.05400
C2335       C  0.69001018  0.73790984  0.70052353    -0.06900
C2336       C  0.71170921  0.71597777  0.68359720    -0.07700
C2337       C  0.70571316  0.68246443  0.67609280    -0.02200
C2338       C  0.67262280  0.67934134  0.66344509     0.04600
N2339       N  0.66219384  0.64973407  0.64470446     0.67100
H2340       H  0.62700364  0.70498681  0.65244372     0.16000
H2341       H  0.72848874  0.72888061  0.66574448     0.15700
N2342       N  0.70477729  0.76457535  0.72166664     0.74800
O2343       O  0.63842107  0.63361007  0.65756314    -0.38600
O2344       O  0.66938936  0.64620289  0.61096966    -0.38600
O2345       O  0.68894168  0.78686003  0.73899926    -0.39300
O2346       O  0.73379545  0.76029770  0.73107224    -0.39300
C2347       C  0.77427067  0.70355587  0.69179548    -0.11600
C2348       C  0.77059877  0.67056230  0.68056339     0.05400
C2349       C  0.80278141  0.65659668  0.67090434    -0.06900
C2350       C  0.83167026  0.67797090  0.67350288    -0.07700
C2351       C  0.82804102  0.71347675  0.68130787    -0.02200
C2352       C  0.79624764  0.72411829  0.67472286     0.04600
N2353       N  0.78872427  0.73445018  0.63754191     0.67100
H2354       H  0.76209331  0.71264327  0.71557727     0.16000
H2355       H  0.85552329  0.66715760  0.66827354     0.15700
N2356       N  0.80767362  0.62209834  0.66072222     0.74800
O2357       O  0.78288260  0.71288758  0.61286208    -0.38600
O2358       O  0.78732623  0.76524135  0.62927245    -0.38600
O2359       O  0.80851809  0.61485872  0.62679555    -0.39300
O2360       O  0.82282152  0.60291132  0.68282433    -0.39300
C2361       C  0.78417171  0.86872951  0.79396763    -0.11600
C2362       C  0.75607528  0.86121791  0.81556313     0.05400
C2363       C  0.72708867  0.86078660  0.79352638    -0.06900
C2364       C  0.72858178  0.85762776  0.75527166    -0.07700
C2365       C  0.75548170  0.86580670  0.73310910    -0.02200
C2366       C  0.78416172  0.87268941  0.75451267     0.04600
N2367       N  0.81486699  0.87903338  0.73715301     0.67100
H2368       H  0.80701717  0.87108431  0.80746513     0.16000
H2369       H  0.70639257  0.84891755  0.74435205     0.15700
N2370       N  0.69590458  0.87293222  0.80512674     0.74800
O2371       O  0.82412162  0.90905578  0.73433324    -0.38600
O2372       O  0.83636660  0.85596650  0.73722551    -0.38600
O2373       O  0.68990126  0.90393969  0.80124993    -0.39300
O2374       O  0.67238203  0.85353139  0.80032302    -0.39300
C2375       C  0.78225558  0.87522307  0.91931085    -0.11600
C2376       C  0.76641783  0.88160349  0.88511102     0.05400
C2377       C  0.75255111  0.91479664  0.88120683    -0.06900
C2378       C  0.75340577  0.93784165  0.91081883    -0.07700
C2379       C  0.76945123  0.93086958  0.94398711    -0.02200
C2380       C  0.78614212  0.89967273  0.94735261     0.04600
N2381       N  0.80668268  0.89184214  0.97864394     0.67100
H2382       H  0.79233386  0.85042948  0.92450202     0.16000
H2383       H  0.74151678  0.96226168  0.90763256     0.15700
N2384       N  0.73744492  0.92682468  0.84809302     0.74800
O2385       O  0.81386292  0.86155750  0.98609955    -0.38600
O2386       O  0.82278864  0.91466807  0.99415107    -0.38600
O2387       O  0.71108489  0.94354835  0.85112201    -0.39300
O2388       O  0.75529262  0.93238594  0.82034459    -0.39300
C2389       C  0.88152815  0.70819945  0.79019029    -0.11600
C2390       C  0.87860160  0.73873711  0.81065706     0.05400
C2391       C  0.88274184  0.76835569  0.78878527    -0.06900
C2392       C  0.87929939  0.76656146  0.75016875    -0.07700
C2393       C  0.86949271  0.73697839  0.73168732    -0.02200
C2394       C  0.87469353  0.70657814  0.75198878     0.04600
N2395       N  0.87439711  0.67387959  0.73537480     0.67100
H2396       H  0.88421375  0.68458763  0.80497325     0.16000
H2397       H  0.88187001  0.78971863  0.73464593     0.15700
N2398       N  0.89090111  0.80055525  0.80364184     0.74800
O2399       O  0.89794585  0.66482062  0.71503691    -0.38600
O2400       O  0.85714396  0.65126436  0.74970372    -0.38600
O2401       O  0.91965069  0.80542957  0.81438717    -0.39300
O2402       O  0.87388320  0.82597028  0.79453610    -0.39300
C2403       C  0.88060811  0.72834883  0.91864311    -0.11600
C2404       C  0.89067630  0.73391105  0.88176763     0.05400
C2405       C  0.92534528  0.73725181  0.87608534    -0.06900
C2406       C  0.94656952  0.73774720  0.90651996    -0.07700
C2407       C  0.93585145  0.73198947  0.94242732    -0.02200
C2408       C  0.90253532  0.72535578  0.94851058     0.04600
N2409       N  0.89054007  0.71454504  0.98405264     0.67100
H2410       H  0.85543346  0.72319403  0.92386843     0.16000
H2411       H  0.97240874  0.74167971  0.90186066     0.15700
N2412       N  0.94085037  0.73824099  0.84054092     0.74800
O2413       O  0.85704331  0.70221668  0.48767838    -0.38600
O2414       O  0.90671549  0.68750198  0.50165502    -0.38600
O2415       O  0.96204569  0.76045020  0.83483737    -0.39300
O2416       O  0.94360372  0.71105116  0.82271863    -0.39300
C2417       C  0.84847637  0.80224338  0.86431336    -0.11600
C2418       C  0.83932444  0.76830476  0.86027043     0.05400
C2419       C  0.80583543  0.76378088  0.86750412    -0.06900
C2420       C  0.78324044  0.78870007  0.85644443    -0.07700
C2421       C  0.79009929  0.82340332  0.85999550    -0.02200
C2422       C  0.82498560  0.82962281  0.86507892     0.04600
N2423       N  0.83800963  0.86234819  0.87252439     0.67100
H2424       H  0.87400646  0.80775317  0.86813357     0.16000
H2425       H  0.75909127  0.78025256  0.85054049     0.15700
N2426       N  0.79776552  0.74500734  0.90000953     0.74800
O2427       O  0.84968056  0.86740924  0.90428960    -0.38600
O2428       O  0.84985154  0.87903763  0.84616746    -0.38600
O2429       O  0.80786176  0.75530255  0.93091189    -0.39300
O2430       O  0.77590610  0.72307797  0.89935777    -0.39300
C2431       C  0.63153134  0.79693389  0.79851181    -0.11600
C2432       C  0.63518794  0.76552043  0.81668473     0.05400
C2433       C  0.62462817  0.73802033  0.79439284    -0.06900
C2434       C  0.62212186  0.74123766  0.75504832    -0.07700
C2435       C  0.62663640  0.77209722  0.73552684    -0.02200
C2436       C  0.62440430  0.80053198  0.75976132     0.04600
N2437       N  0.60723022  0.83044911  0.74832739     0.67100
H2438       H  0.62918308  0.81877770  0.81540841     0.16000
H2439       H  0.61642987  0.71890782  0.73965104     0.15700
N2440       N  0.61493841  0.70700855  0.81118639     0.74800
O2441       O  0.58231406  0.82799021  0.72811451    -0.38600
O2442       O  0.61326522  0.85848900  0.76309649    -0.38600
O2443       O  0.58740878  0.70534226  0.82667707    -0.39300
O2444       O  0.63015617  0.68000623  0.80395359    -0.39300
C2445       C  0.62835607  0.74527943  0.92381234    -0.11600
C2446       C  0.61998170  0.75700506  0.88788911     0.05400
C2447       C  0.58634315  0.76599155  0.88220734    -0.06900
C2448       C  0.56333475  0.76154745  0.91078336    -0.07700
C2449       C  0.57210566  0.74818848  0.94526123    -0.02200
C2450       C  0.60497264  0.73970252  0.95152460     0.04600
N2451       N  0.61525760  0.72633790  0.98637570     0.67100
H2452       H  0.65345704  0.73933675  0.93049448     0.16000
H2453       H  0.53817416  0.76921705  0.90607987     0.15700
N2454       N  0.57489608  0.78260943  0.84950486     0.74800
O2455       O  0.61468245  0.69713584  0.49581899    -0.38600
O2456       O  0.62284729  0.74921104  0.51210524    -0.38600
O2457       O  0.55668208  0.76682326  0.82764255    -0.39300
O2458       O  0.57343523  0.81436509  0.84924027    -0.39300
C2459       C  0.69505387  0.84746933  0.87292068    -0.11600
C2460       C  0.72695851  0.83372216  0.87569452     0.05400
C2461       C  0.72605212  0.80495834  0.89929444    -0.06900
C2462       C  0.70023019  0.78205767  0.89493588    -0.07700
C2463       C  0.67189728  0.79026645  0.87385673    -0.02200
C2464       C  0.66702692  0.82599916  0.87237413     0.04600
N2465       N  0.63532628  0.84089626  0.87784059     0.67100
H2466       H  0.69182459  0.87450997  0.87144651     0.16000
H2467       H  0.70198669  0.75824408  0.90931919     0.15700
N2468       N  0.74367951  0.80392458  0.93354861     0.74800
O2469       O  0.61826078  0.83124113  0.90482022    -0.38600
O2470       O  0.62826820  0.86872024  0.86272021    -0.38600
O2471       O  0.74215561  0.82957572  0.95408097    -0.39300
O2472       O  0.74862691  0.77584961  0.94903862    -0.39300
C2473       C  0.70843795  0.64163193  0.78789533    -0.11600
C2474       C  0.73821676  0.63205579  0.80462991     0.05400
C2475       C  0.76106340  0.61610738  0.78005684    -0.06900
C2476       C  0.75785678  0.62079034  0.74114109    -0.07700
C2477       C  0.73172219  0.63959194  0.72515718    -0.02200
C2478       C  0.70472707  0.64459240  0.74941245     0.04600
N2479       N  0.67266212  0.65138151  0.73645698     0.67100
H2480       H  0.68754699  0.64833481  0.80446658     0.16000
H2481       H  0.77704925  0.61124307  0.72369701     0.15700
N2482       N  0.78899307  0.59779630  0.79347229     0.74800
O2483       O  0.65281971  0.62744461  0.73498559    -0.38600
O2484       O  0.66141062  0.68059450  0.74131591    -0.38600
O2485       O  0.78997431  0.56628651  0.78908946    -0.39300
O2486       O  0.81560329  0.61287652  0.79758638    -0.39300
C2487       C  0.75320732  0.62751554  0.91113607    -0.11600
C2488       C  0.74538924  0.61703640  0.87508228     0.05400
C2489       C  0.73724209  0.58235019  0.87033568    -0.06900
C2490       C  0.73982787  0.56015179  0.90066273    -0.07700
C2491       C  0.75216605  0.57059105  0.93485391    -0.02200
C2492       C  0.76077726  0.60463933  0.93929052     0.04600
N2493       N  0.77928027  0.61643653  0.97033558     0.67100
H2494       H  0.75759011  0.65399161  0.91594781     0.16000
H2495       H  0.73239126  0.53422787  0.89735669     0.15700
N2496       N  0.72398691  0.56914234  0.83676013     0.74800
O2497       O  0.80217531  0.59836082  0.98312120    -0.38600
O2498       O  0.77924914  0.64755552  0.97765557    -0.38600
O2499       O  0.73559978  0.54193826  0.82390078    -0.39300
O2500       O  0.69557699  0.57804038  0.82716484    -0.39300
C2501       C  0.72632514  0.70732424  0.84766366    -0.11600
C2502       C  0.72040123  0.67369684  0.85703288     0.05400
C2503       C  0.68773187  0.66835417  0.87104047    -0.06900
C2504       C  0.66455147  0.69571143  0.87365076    -0.07700
C2505       C  0.67090252  0.72775341  0.85796386    -0.02200
C2506       C  0.70148383  0.73034440  0.84132637     0.04600
N2507       N  0.70361819  0.74818358  0.80809870     0.67100
H2508       H  0.74925357  0.71631527  0.83882808     0.16000
H2509       H  0.64068271  0.69064372  0.88500570     0.15700
N2510       N  0.67645581  0.63559846  0.88070639     0.74800
O2511       O  0.71314712  0.77821624  0.80663426    -0.38600
O2512       O  0.69346960  0.73312239  0.77997605    -0.38600
O2513       O  0.68102699  0.62502856  0.91321033    -0.39300
O2514       O  0.65350876  0.62321695  0.86213073    -0.39300
C2515       C  0.81728246  0.70580551  0.82163662    -0.11600
C2516       C  0.83964078  0.70459270  0.85035240     0.05400
C2517       C  0.83752045  0.67477222  0.87240321    -0.06900
C2518       C  0.80897214  0.65413069  0.86999120    -0.07700
C2519       C  0.78286068  0.66090407  0.84437007    -0.02200
C2520       C  0.79222037  0.68355900  0.81652135     0.04600
N2521       N  0.77828187  0.68366939  0.78102099     0.67100
H2522       H  0.82069819  0.72441988  0.80118462     0.16000
H2523       H  0.80886238  0.63172573  0.88679437     0.15700
N2524       N  0.86464075  0.66258099  0.89364050     0.74800
O2525       O  0.75062799  0.69691611  0.77542894    -0.38600
O2526       O  0.79720368  0.67767289  0.75434427    -0.38600
O2527       O  0.85996336  0.65021070  0.92534344    -0.39300
O2528       O  0.89201449  0.65823576  0.87813369    -0.39300
loop_ 
_geom_bond_atom_site_label_1 
_geom_bond_atom_site_label_2 
_geom_bond_distance 
_geom_bond_site_symmetry_2 
_ccdc_geom_bond_type 
C1          C262   1.587       .  S
C1          C276   1.550       .  S
C1          C290   1.619       .  S
C1          C307   1.611       .  S
C2          C220   1.630       .  S
C2          C234   1.561       .  S
C2          C251   1.630       .  S
C2          C293   1.604       .  S
C3          C178   1.607       .  S
C3          C192   1.570       .  S
C3          C206   1.599       .  S
C3          C304   1.612       .  S
C4          C150   1.637       .  S
C4          C164   1.573       .  S
C4          C209   1.630       .  S
C4          C248   1.639       .  S
C5          C108   1.560       .  S
C5          C125   1.626       .  S
C5          C136   1.652       .  S
C5          C265   1.599       .  S
C6           C83   1.586       .  S
C6           C97   1.628       .  S
C6          C122   1.588       .  S
C6          C223   1.649       .  S
C7           C52   1.566       .  S
C7           C66   1.647       .  S
C7          C139   1.596       .  S
C7          C181   1.601       .  S
C8           C41   1.560       .  S
C8           C69   1.592       .  S
C8           C94   1.622       .  S
C8          C153   1.622       .  S
O9           V17   1.916       .  S
O9           C19   1.267       .  A
O10        V1597   1.917       .  S
O10          C20   1.268       .  A
O11         V333   1.910       .  S
O11          C21   1.266       .  A
O12        V1281   1.894       .  S
O12          C22   1.264       .  A
O13          V18   1.892       .  S
O13          C22   1.261       .  A
O14        V1598   1.898   1_455  S
O14          C21   1.263       .  A
O15         V334   1.905       .  S
O15          C20   1.265       .  A
O16        V1282   1.910   1_455  S
O16          C19   1.269       .  A
V17        O1590   1.916   1_454  S
V17         O327   1.913   1_554  S
V17        O1276   1.900   1_455  S
V17        V1282   2.087   1_455  T
V18        O1594   1.899   1_554  S
V18         O331   1.902   1_554  S
V18        O1280   1.905       .  S
V18        V1281   2.087       .  T
C19          C80   1.498       .  S
C20         C195   1.486       .  S
C21         C237   1.477       .  S
C22          C55   1.463       .  S
O23         V347   1.914       .  S
O23          C33   1.267       .  A
O24         V663   1.918       .  S
O24          C34   1.268       .  A
O25          V31   1.913       .  S
O25          C35   1.266       .  A
O26         V979   1.900       .  S
O26          C36   1.263       .  A
O27         V980   1.905       .  S
O27          C36   1.265       .  A
O28          V32   1.915       .  S
O28          C35   1.268       .  A
O29         V664   1.904   1_545  S
O29          C34   1.265       .  A
O30         V348   1.904       .  S
O30          C33   1.265       .  A
V31         O339   1.916   1_554  S
V31         O656   1.914       .  S
V31         O974   1.901   1_554  S
V31          V32   2.085       .  T
V32         O975   1.909   1_554  S
V32         O661   1.902       .  S
V32         O346   1.904   1_554  S
C33         C167   1.491       .  S
C34         C111   1.484       .  S
C35          C38   1.488       .  S
C36         C279   1.477       .  S
C37          C38   1.405       .  A
C37          C42   1.418       .  A
C37          H44   1.084       .  S
C38          C39   1.403       .  A
C39          C40   1.399       .  A
C39          N46   1.431       .  S
C40          C41   1.416       .  A
C40          H45   1.082       .  S
C41          C42   1.431       .  A
C42          N43   1.431       .  S
N43          O47   1.262       .  A
N43          O48   1.262       .  A
N46          O50   1.262       .  A
N46          O49   1.261       .  A
C51          C52   1.418       .  A
C51          C56   1.394       .  A
C51          H58   1.074       .  S
C52          C53   1.441       .  A
C53          C54   1.403       .  A
C53          N60   1.432       .  S
C54          C55   1.389       .  A
C54          H59   1.083       .  S
C55          C56   1.395       .  A
C56          N57   1.431       .  S
N57          O61   1.259       .  A
N57          O62   1.262       .  A
N60          O64   1.262       .  A
N60          O63   1.263       .  A
C65          C66   1.431       .  A
C65          C70   1.438       .  A
C65          H72   1.078       .  S
C66          C67   1.426       .  A
C67          C68   1.386       .  A
C67          N74   1.409       .  S
C68          C69   1.381       .  A
C68          H73   1.075       .  S
C69          C70   1.437       .  A
C70          N71   1.430       .  S
N71          O75   1.262       .  A
N71          O76   1.262       .  A
N74          O78   1.264       .  A
N74          O77   1.245       .  A
C79          C80   1.393       .  A
C79          C84   1.404       .  A
C79          H86   1.084       .  S
C80          C81   1.410       .  A
C81          C82   1.412       .  A
C81          N88   1.428       .  S
C82          C83   1.419       .  A
C82          H87   1.076       .  S
C83          C84   1.442       .  A
C84          N85   1.426       .  S
N85          O89   1.263       .  A
N85          O90   1.262       .  A
N88          O92   1.261       .  A
N88          O91   1.262       .  A
C93          C94   1.418       .  A
C93          C98   1.422       .  A
C93         H100   1.078       .  S
C94          C95   1.433       .  A
C95          C96   1.421       .  A
C95         N102   1.436       .  S
C96          C97   1.414       .  A
C96         H101   1.064       .  S
C97          C98   1.442       .  A
C98          N99   1.440       .  S
N99         O103   1.262       .  A
N99         O104   1.262       .  A
N102        O106   1.263       .  A
N102        O105   1.261       .  A
C107        C108   1.412       .  A
C107        C112   1.403       .  A
C107        H114   1.084       .  S
C108        C109   1.437       .  A
C109        C110   1.404       .  A
C109        N116   1.428       .  S
C110        C111   1.392       .  A
C110        H115   1.085       .  S
C111        C112   1.404       .  A
C112        N113   1.420       .  S
N113        O117   1.262       .  A
N113        O118   1.262       .  A
N116        O120   1.262       .  A
N116        O119   1.261       .  A
C121        C122   1.449       .  A
C121        C126   1.447       .  A
C121        H128   1.076       .  S
C122        C123   1.425       .  A
C123        C124   1.376       .  A
C123        N130   1.464       .  S
C124        C125   1.382       .  A
C124        H129   1.081       .  S
C125        C126   1.430       .  A
C126        N127   1.426       .  S
N127        O131   1.261       .  A
N127        O132   1.262       .  A
N130        O134   1.259       .  A
N130        O133   1.256       .  A
C135        C136   1.399       .  A
C135        C140   1.369       .  A
C135        H142   1.069       .  S
C136        C137   1.459       .  A
C137        C138   1.462       .  A
C137        N144   1.431       .  S
C138        C139   1.432       .  A
C138        H143   1.080       .  S
C139        C140   1.386       .  A
C140        N141   1.429       .  S
N141        O145   1.263       .  A
N141        O146   1.261       .  A
N144        O148   1.262       .  A
N144        O147   1.260       .  A
C149        C150   1.429       .  A
C149        C154   1.439       .  A
C149        H156   1.058       .  S
C150        C151   1.432       .  A
C151        C152   1.399       .  A
C151        N158   1.403       .  S
C152        C153   1.392       .  A
C152        H157   1.049       .  S
C153        C154   1.432       .  A
C154        N155   1.430       .  S
N155        O159   1.261       .  A
N155        O160   1.260       .  A
N158        O162   1.252       .  A
N158        O161   1.263       .  A
C163        C164   1.414       .  A
C163        C168   1.409       .  A
C163        H170   1.078       .  S
C164        C165   1.430       .  A
C165        C166   1.412       .  A
C165        N172   1.430       .  S
C166        C167   1.402       .  A
C166        H171   1.085       .  S
C167        C168   1.412       .  A
C168        N169   1.445       .  S
N169        O173   1.263       .  A
N169        O174   1.261       .  A
N172        O176   1.262       .  A
N172        O175   1.262       .  A
C177        C178   1.414       .  A
C177        C182   1.410       .  A
C177        H184   1.083       .  S
C178        C179   1.434       .  A
C179        C180   1.411       .  A
C179        N186   1.421       .  S
C180        C181   1.413       .  A
C180        H185   1.083       .  S
C181        C182   1.442       .  A
C182        N183   1.427       .  S
N183        O187   1.259       .  A
N183        O188   1.260       .  A
N186        O190   1.260       .  A
N186        O189   1.261       .  A
C191        C192   1.413       .  A
C191        C196   1.410       .  A
C191        H198   1.073       .  S
C192        C193   1.435       .  A
C193        C194   1.407       .  A
C193        N200   1.430       .  S
C194        C195   1.395       .  A
C194        H199   1.085       .  S
C195        C196   1.413       .  A
C196        N197   1.443       .  S
N197        O517   1.263       .  A
N197        O518   1.262       .  A
N200        O204   1.262       .  A
N200        O203   1.262       .  A
O201        N513   1.263       .  A
O202        N513   1.262   1_554  A
C205        C206   1.407       .  A
C205        C210   1.437       .  A
C205        H212   1.082       .  S
C206        C207   1.399       .  A
C207        C208   1.393       .  A
C207        N214   1.432       .  S
C208        C209   1.414       .  A
C208        H213   1.065       .  S
C209        C210   1.470       .  A
C210        N211   1.439       .  S
N211        O215   1.262       .  A
N211        O216   1.261       .  A
N214        O218   1.259       .  A
N214        O217   1.263       .  A
C219        C220   1.416       .  A
C219        C224   1.439       .  A
C219        H226   1.067       .  S
C220        C221   1.430       .  A
C221        C222   1.433       .  A
C221        N228   1.433       .  S
C222        C223   1.431       .  A
C222        H227   1.074       .  S
C223        C224   1.432       .  A
C224        N225   1.430       .  S
N225        O229   1.262       .  A
N225        O230   1.263       .  A
N228        O232   1.259       .  A
N228        O231   1.261       .  A
C233        C234   1.420       .  A
C233        C238   1.398       .  A
C233        H240   1.079       .  S
C234        C235   1.432       .  A
C235        C236   1.407       .  A
C235        N242   1.430       .  S
C236        C237   1.399       .  A
C236        H241   1.084       .  S
C237        C238   1.399       .  A
C238        N239   1.430       .  S
N239        O559   1.262       .  A
N239        O560   1.262       .  A
N242        O246   1.262       .  A
N242        O245   1.262       .  A
O243        N555   1.262       .  A
O244        N555   1.262   1_554  A
C247        C248   1.417       .  A
C247        C252   1.445       .  A
C247        H254   1.080       .  S
C248        C249   1.427       .  A
C249        C250   1.415       .  A
C249        N256   1.435       .  S
C250        C251   1.424       .  A
C250        H255   1.080       .  S
C251        C252   1.436       .  A
C252        N253   1.432       .  S
N253        O257   1.262       .  A
N253        O258   1.262       .  A
N256        O260   1.261       .  A
N256        O259   1.261       .  A
C261        C262   1.408       .  A
C261        C266   1.404       .  A
C261        H268   1.074       .  S
C262        C263   1.434       .  A
C263        C264   1.427       .  A
C263        N270   1.432       .  S
C264        C265   1.418       .  A
C264        H269   1.071       .  S
C265        C266   1.429       .  A
C266        N267   1.428       .  S
N267        O271   1.260       .  A
N267        O272   1.256       .  A
N270        O274   1.261       .  A
N270        O273   1.261       .  A
C275        C276   1.409       .  A
C275        C280   1.395       .  A
C275        H282   1.083       .  S
C276        C277   1.431       .  A
C277        C278   1.409       .  A
C277        N284   1.434       .  S
C278        C279   1.402       .  A
C278        H283   1.084       .  S
C279        C280   1.409       .  A
C280        N281   1.438       .  S
N281        O285   1.261       .  A
N281        O286   1.263       .  A
N284        O288   1.261       .  A
N284        O287   1.262       .  A
C289        C290   1.403       .  A
C289        C294   1.378       .  A
C289        H296   1.057       .  S
C290        C291   1.449       .  A
C291        C292   1.439       .  A
C291        N298   1.429       .  S
C292        C293   1.422       .  A
C292        H297   1.082       .  S
C293        C294   1.388       .  A
C294        N295   1.392       .  S
N295        O299   1.259       .  A
N295        O300   1.253       .  A
N298        O302   1.262       .  A
N298        O301   1.261       .  A
C303        C304   1.389       .  A
C303        C308   1.378       .  A
C303        H310   1.048       .  S
C304        C305   1.432       .  A
C305        C306   1.439       .  A
C305        N312   1.431       .  S
C306        C307   1.437       .  A
C306        H311   1.079       .  S
C307        C308   1.402       .  A
C308        N309   1.413       .  S
N309        O313   1.255       .  A
N309        O314   1.255       .  A
N312        O316   1.262       .  A
N312        O315   1.262       .  A
C317        C578   1.585       .  S
C317        C592   1.550       .  S
C317        C606   1.620       .  S
C317        C623   1.614       .  S
C318        C536   1.633       .  S
C318        C550   1.565       .  S
C318        C567   1.632       .  S
C318        C609   1.607       .  S
C319        C494   1.605       .  S
C319        C508   1.569       .  S
C319        C522   1.603       .  S
C319        C620   1.610       .  S
C320        C466   1.634       .  S
C320        C480   1.575       .  S
C320        C525   1.631       .  S
C320        C564   1.642       .  S
C321        C424   1.554       .  S
C321        C441   1.626       .  S
C321        C452   1.650       .  S
C321        C581   1.595       .  S
C322        C399   1.588       .  S
C322        C413   1.628       .  S
C322        C438   1.585       .  S
C322        C539   1.651       .  S
C323        C368   1.565       .  S
C323        C382   1.642       .  S
C323        C455   1.599       .  S
C323        C497   1.598       .  S
C324        C357   1.557       .  S
C324        C385   1.591       .  S
C324        C410   1.620       .  S
C324        C469   1.622       .  S
O325        V333   1.918       .  S
O325        C335   1.267       .  A
O326       V1281   1.914   1_556  S
O326        C336   1.267       .  A
O327        C337   1.267       .  A
O328       V1597   1.898       .  S
O328        C338   1.264       .  A
O329        V334   1.890       .  S
O329        C338   1.261       .  A
O330       V1282   1.900   1_456  S
O330        C337   1.263       .  A
O331        C336   1.264       .  A
O332       V1598   1.910   1_455  S
O332        C335   1.269       .  A
V333       O1274   1.920   1_455  S
V333       O1592   1.894   1_455  S
V333       V1598   2.087   1_455  T
V334       O1278   1.895       .  S
V334       O1596   1.908       .  S
V334       V1597   2.087       .  T
C335        C396   1.500       .  S
C336        C511   1.481       .  S
C337        C553   1.481       .  S
C338        C371   1.464       .  S
O339        C349   1.268       .  A
O340        V979   1.908       .  S
O340        C350   1.265       .  A
O341        V347   1.910       .  S
O341        C351   1.265       .  A
O342        V663   1.899   1_556  S
O342        C352   1.263       .  A
O343        V664   1.904   1_546  S
O343        C352   1.265       .  A
O344        V348   1.914       .  S
O344        C351   1.267       .  A
O345        V980   1.905       .  S
O345        C350   1.265       .  A
O346        C349   1.265       .  A
V347        O972   1.912       .  S
V347        O658   1.898       .  S
V347        V348   2.086       .  T
V348        O659   1.911       .  S
V348        O977   1.904       .  S
C349        C483   1.493       .  S
C350        C427   1.477       .  S
C351        C354   1.486       .  S
C352        C595   1.477       .  S
C353        C354   1.406       .  A
C353        C358   1.417       .  A
C353        H360   1.084       .  S
C354        C355   1.403       .  A
C355        C356   1.397       .  A
C355        N362   1.432       .  S
C356        C357   1.416       .  A
C356        H361   1.082       .  S
C357        C358   1.429       .  A
C358        N359   1.431       .  S
N359        O363   1.262       .  A
N359        O364   1.261       .  A
N362        O366   1.262       .  A
N362        O365   1.262       .  A
C367        C368   1.416       .  A
C367        C372   1.393       .  A
C367        H374   1.074       .  S
C368        C369   1.442       .  A
C369        C370   1.405       .  A
C369        N376   1.433       .  S
C370        C371   1.391       .  A
C370        H375   1.084       .  S
C371        C372   1.396       .  A
C372        N373   1.432       .  S
N373        O377   1.259       .  A
N373        O378   1.262       .  A
N376        O380   1.261       .  A
N376        O379   1.263       .  A
C381        C382   1.430       .  A
C381        C386   1.438       .  A
C381        H388   1.078       .  S
C382        C383   1.425       .  A
C383        C384   1.383       .  A
C383        N390   1.408       .  S
C384        C385   1.379       .  A
C384        H389   1.072       .  S
C385        C386   1.439       .  A
C386        N387   1.431       .  S
N387        O391   1.262       .  A
N387        O392   1.262       .  A
N390        O394   1.264       .  A
N390        O393   1.245       .  A
C395        C396   1.393       .  A
C395        C400   1.403       .  A
C395        H402   1.084       .  S
C396        C397   1.411       .  A
C397        C398   1.414       .  A
C397        N404   1.428       .  S
C398        C399   1.419       .  A
C398        H403   1.077       .  S
C399        C400   1.442       .  A
C400        N401   1.426       .  S
N401        O405   1.263       .  A
N401        O406   1.262       .  A
N404        O408   1.261       .  A
N404        O407   1.262       .  A
C409        C410   1.415       .  A
C409        C414   1.421       .  A
C409        H416   1.078       .  S
C410        C411   1.434       .  A
C411        C412   1.421       .  A
C411        N418   1.434       .  S
C412        C413   1.413       .  A
C412        H417   1.064       .  S
C413        C414   1.444       .  A
C414        N415   1.441       .  S
N415        O419   1.262       .  A
N415        O420   1.262       .  A
N418        O422   1.263       .  A
N418        O421   1.261       .  A
C423        C424   1.410       .  A
C423        C428   1.398       .  A
C423        H430   1.084       .  S
C424        C425   1.438       .  A
C425        C426   1.404       .  A
C425        N432   1.428       .  S
C426        C427   1.392       .  A
C426        H431   1.085       .  S
C427        C428   1.401       .  A
C428        N429   1.419       .  S
N429        O433   1.262       .  A
N429        O434   1.262       .  A
N432        O436   1.262       .  A
N432        O435   1.261       .  A
C437        C438   1.447       .  A
C437        C442   1.444       .  A
C437        H444   1.076       .  S
C438        C439   1.426       .  A
C439        C440   1.373       .  A
C439        N446   1.464       .  S
C440        C441   1.382       .  A
C440        H445   1.081       .  S
C441        C442   1.432       .  A
C442        N443   1.427       .  S
N443        O447   1.261       .  A
N443        O448   1.262       .  A
N446        O450   1.260       .  A
N446        O449   1.257       .  A
C451        C452   1.396       .  A
C451        C456   1.369       .  A
C451        H458   1.069       .  S
C452        C453   1.458       .  A
C453        C454   1.463       .  A
C453        N460   1.431       .  S
C454        C455   1.434       .  A
C454        H459   1.079       .  S
C455        C456   1.385       .  A
C456        N457   1.429       .  S
N457        O461   1.263       .  A
N457        O462   1.261       .  A
N460        O464   1.262       .  A
N460        O463   1.260       .  A
C465        C466   1.429       .  A
C465        C470   1.441       .  A
C465        H472   1.057       .  S
C466        C467   1.428       .  A
C467        C468   1.395       .  A
C467        N474   1.405       .  S
C468        C469   1.394       .  A
C468        H473   1.045       .  S
C469        C470   1.434       .  A
C470        N471   1.430       .  S
N471        O475   1.261       .  A
N471        O476   1.260       .  A
N474        O478   1.252       .  A
N474        O477   1.262       .  A
C479        C480   1.415       .  A
C479        C484   1.410       .  A
C479        H486   1.077       .  S
C480        C481   1.432       .  A
C481        C482   1.411       .  A
C481        N488   1.430       .  S
C482        C483   1.401       .  A
C482        H487   1.085       .  S
C483        C484   1.412       .  A
C484        N485   1.444       .  S
N485        O489   1.263       .  A
N485        O490   1.261       .  A
N488        O492   1.262       .  A
N488        O491   1.263       .  A
C493        C494   1.416       .  A
C493        C498   1.408       .  A
C493        H500   1.083       .  S
C494        C495   1.433       .  A
C495        C496   1.411       .  A
C495        N502   1.422       .  S
C496        C497   1.415       .  A
C496        H501   1.084       .  S
C497        C498   1.438       .  A
C498        N499   1.427       .  S
N499        O503   1.259       .  A
N499        O504   1.261       .  A
N502        O506   1.261       .  A
N502        O505   1.261       .  A
C507        C508   1.413       .  A
C507        C512   1.410       .  A
C507        H514   1.073       .  S
C508        C509   1.437       .  A
C509        C510   1.405       .  A
C509        N516   1.430       .  S
C510        C511   1.393       .  A
C510        H515   1.085       .  S
C511        C512   1.413       .  A
C512        N513   1.443       .  S
N516        O520   1.262       .  A
N516        O519   1.262       .  A
C521        C522   1.407       .  A
C521        C526   1.437       .  A
C521        H528   1.081       .  S
C522        C523   1.401       .  A
C523        C524   1.395       .  A
C523        N530   1.432       .  S
C524        C525   1.415       .  A
C524        H529   1.067       .  S
C525        C526   1.471       .  A
C526        N527   1.440       .  S
N527        O531   1.262       .  A
N527        O532   1.261       .  A
N530        O534   1.259       .  A
N530        O533   1.263       .  A
C535        C536   1.416       .  A
C535        C540   1.442       .  A
C535        H542   1.068       .  S
C536        C537   1.430       .  A
C537        C538   1.435       .  A
C537        N544   1.433       .  S
C538        C539   1.432       .  A
C538        H543   1.075       .  S
C539        C540   1.432       .  A
C540        N541   1.431       .  S
N541        O545   1.262       .  A
N541        O546   1.263       .  A
N544        O548   1.259       .  A
N544        O547   1.261       .  A
C549        C550   1.421       .  A
C549        C554   1.400       .  A
C549        H556   1.079       .  S
C550        C551   1.433       .  A
C551        C552   1.409       .  A
C551        N558   1.431       .  S
C552        C553   1.401       .  A
C552        H557   1.084       .  S
C553        C554   1.399       .  A
C554        N555   1.430       .  S
N558        O562   1.262       .  A
N558        O561   1.261       .  A
C563        C564   1.417       .  A
C563        C568   1.445       .  A
C563        H570   1.080       .  S
C564        C565   1.429       .  A
C565        C566   1.417       .  A
C565        N572   1.436       .  S
C566        C567   1.424       .  A
C566        H571   1.080       .  S
C567        C568   1.435       .  A
C568        N569   1.431       .  S
N569        O573   1.262       .  A
N569        O574   1.263       .  A
N572        O576   1.262       .  A
N572        O575   1.261       .  A
C577        C578   1.407       .  A
C577        C582   1.403       .  A
C577        H584   1.074       .  S
C578        C579   1.434       .  A
C579        C580   1.426       .  A
C579        N586   1.433       .  S
C580        C581   1.417       .  A
C580        H585   1.072       .  S
C581        C582   1.428       .  A
C582        N583   1.427       .  S
N583        O587   1.260       .  A
N583        O588   1.256       .  A
N586        O590   1.261       .  A
N586        O589   1.261       .  A
C591        C592   1.407       .  A
C591        C596   1.398       .  A
C591        H598   1.083       .  S
C592        C593   1.431       .  A
C593        C594   1.408       .  A
C593        N600   1.434       .  S
C594        C595   1.402       .  A
C594        H599   1.084       .  S
C595        C596   1.413       .  A
C596        N597   1.443       .  S
N597        O601   1.261       .  A
N597        O602   1.264       .  A
N600        O604   1.260       .  A
N600        O603   1.262       .  A
C605        C606   1.404       .  A
C605        C610   1.379       .  A
C605        H612   1.056       .  S
C606        C607   1.449       .  A
C607        C608   1.439       .  A
C607        N614   1.429       .  S
C608        C609   1.422       .  A
C608        H613   1.082       .  S
C609        C610   1.390       .  A
C610        N611   1.392       .  S
N611        O615   1.260       .  A
N611        O616   1.253       .  A
N614        O618   1.263       .  A
N614        O617   1.261       .  A
C619        C620   1.389       .  A
C619        C624   1.376       .  A
C619        H626   1.048       .  S
C620        C621   1.432       .  A
C621        C622   1.439       .  A
C621        N628   1.430       .  S
C622        C623   1.438       .  A
C622        H627   1.078       .  S
C623        C624   1.401       .  A
C624        N625   1.411       .  S
N625        O629   1.256       .  A
N625        O630   1.256       .  A
N628        O632   1.262       .  A
N628        O631   1.262       .  A
C633        C894   1.585       .  S
C633        C908   1.551       .  S
C633        C922   1.620       .  S
C633        C939   1.610       .  S
C634        C852   1.631       .  S
C634        C866   1.564       .  S
C634        C883   1.632       .  S
C634        C925   1.605       .  S
C635        C810   1.605       .  S
C635        C824   1.566       .  S
C635        C838   1.603       .  S
C635        C936   1.612       .  S
C636        C782   1.631       .  S
C636        C796   1.569       .  S
C636        C841   1.631       .  S
C636        C880   1.641       .  S
C637        C740   1.557       .  S
C637        C757   1.625       .  S
C637        C768   1.652       .  S
C637        C897   1.598       .  S
C638        C715   1.584       .  S
C638        C729   1.628       .  S
C638        C754   1.590       .  S
C638        C855   1.647       .  S
C639        C684   1.572       .  S
C639        C698   1.644       .  S
C639        C771   1.597       .  S
C639        C813   1.600       .  S
C640        C673   1.549       .  S
C640        C701   1.593       .  S
C640        C726   1.621       .  S
C640        C785   1.617       .  S
O641        V649   1.913       .  S
O641        C651   1.266       .  A
O642       V2229   1.913       .  S
O642        C652   1.267       .  A
O643        V965   1.915   1_455  S
O643        C653   1.267       .  A
O644       V1913   1.903       .  S
O644        C654   1.266       .  A
O645        V650   1.896       .  S
O645        C654   1.262       .  A
O646       V2230   1.901   1_455  S
O646        C653   1.264       .  A
O647        V966   1.898       .  S
O647        C652   1.263       .  A
O648       V1914   1.907   1_455  S
O648        C651   1.268       .  A
V649       O2222   1.914   1_454  S
V649        O959   1.917   1_554  S
V649       O1908   1.900   1_455  S
V649       V1914   2.086   1_455  T
V650       O2226   1.904   1_554  S
V650        O963   1.899   1_554  S
V650       O1912   1.903       .  S
V650       V1913   2.087       .  T
C651        C712   1.496       .  S
C652        C827   1.478       .  S
C653        C869   1.482       .  S
C654        C687   1.473       .  S
O655        V979   1.908   1_565  S
O655        C665   1.265       .  A
O656        C666   1.267       .  A
O657        V663   1.909   1_565  S
O657        C667   1.265       .  A
O658        C668   1.262       .  A
O659        C668   1.267       .  A
O660        V664   1.907       .  S
O660        C667   1.266       .  A
O661        C666   1.264       .  A
O662        V980   1.902   1_565  S
O662        C665   1.265       .  A
V663        O971   1.922   1_544  S
V663        V664   2.084   1_545  T
V664        O978   1.906   1_554  S
C665        C799   1.485       .  S
C666        C743   1.479       .  S
C667        C670   1.480       .  S
C668        C911   1.481       .  S
C669        C670   1.405       .  A
C669        C674   1.418       .  A
C669        H676   1.084       .  S
C670        C671   1.394       .  A
C671        C672   1.387       .  A
C671        N678   1.421       .  S
C672        C673   1.411       .  A
C672        H677   1.083       .  S
C673        C674   1.431       .  A
C674        N675   1.431       .  S
N675        O679   1.262       .  A
N675        O680   1.261       .  A
N678        O682   1.262       .  A
N678        O681   1.260       .  A
C683        C684   1.418       .  A
C683        C688   1.398       .  A
C683        H690   1.076       .  S
C684        C685   1.442       .  A
C685        C686   1.406       .  A
C685        N692   1.432       .  S
C686        C687   1.390       .  A
C686        H691   1.084       .  S
C687        C688   1.399       .  A
C688        N689   1.432       .  S
N689        O693   1.260       .  A
N689        O694   1.262       .  A
N692        O696   1.262       .  A
N692        O695   1.263       .  A
C697        C698   1.429       .  A
C697        C702   1.439       .  A
C697        H704   1.078       .  S
C698        C699   1.426       .  A
C699        C700   1.384       .  A
C699        N706   1.407       .  S
C700        C701   1.377       .  A
C700        H705   1.074       .  S
C701        C702   1.442       .  A
C702        N703   1.432       .  S
N703        O707   1.262       .  A
N703        O708   1.262       .  A
N706        O710   1.264       .  A
N706        O709   1.245       .  A
C711        C712   1.393       .  A
C711        C716   1.402       .  A
C711        H718   1.084       .  S
C712        C713   1.410       .  A
C713        C714   1.411       .  A
C713        N720   1.428       .  S
C714        C715   1.417       .  A
C714        H719   1.077       .  S
C715        C716   1.440       .  A
C716        N717   1.426       .  S
N717        O721   1.263       .  A
N717        O722   1.262       .  A
N720        O724   1.261       .  A
N720        O723   1.262       .  A
C725        C726   1.416       .  A
C725        C730   1.421       .  A
C725        H732   1.077       .  S
C726        C727   1.432       .  A
C727        C728   1.420       .  A
C727        N734   1.436       .  S
C728        C729   1.414       .  A
C728        H733   1.064       .  S
C729        C730   1.442       .  A
C730        N731   1.440       .  S
N731        O735   1.262       .  A
N731        O736   1.262       .  A
N734        O738   1.263       .  A
N734        O737   1.262       .  A
C739        C740   1.411       .  A
C739        C744   1.401       .  A
C739        H746   1.084       .  S
C740        C741   1.440       .  A
C741        C742   1.403       .  A
C741        N748   1.428       .  S
C742        C743   1.391       .  A
C742        H747   1.085       .  S
C743        C744   1.403       .  A
C744        N745   1.419       .  S
N745        O749   1.262       .  A
N745        O750   1.262       .  A
N748        O752   1.262       .  A
N748        O751   1.261       .  A
C753        C754   1.449       .  A
C753        C758   1.445       .  A
C753        H760   1.075       .  S
C754        C755   1.427       .  A
C755        C756   1.377       .  A
C755        N762   1.464       .  S
C756        C757   1.383       .  A
C756        H761   1.082       .  S
C757        C758   1.430       .  A
C758        N759   1.427       .  S
N759        O763   1.261       .  A
N759        O764   1.262       .  A
N762        O766   1.260       .  A
N762        O765   1.256       .  A
C767        C768   1.402       .  A
C767        C772   1.371       .  A
C767        H774   1.069       .  S
C768        C769   1.457       .  A
C769        C770   1.462       .  A
C769        N776   1.431       .  S
C770        C771   1.431       .  A
C770        H775   1.080       .  S
C771        C772   1.385       .  A
C772        N773   1.429       .  S
N773        O777   1.263       .  A
N773        O778   1.261       .  A
N776        O780   1.262       .  A
N776        O779   1.260       .  A
C781        C782   1.428       .  A
C781        C786   1.435       .  A
C781        H788   1.063       .  S
C782        C783   1.431       .  A
C783        C784   1.394       .  A
C783        N790   1.404       .  S
C784        C785   1.391       .  A
C784        H789   1.081       .  S
C785        C786   1.430       .  A
C786        N787   1.429       .  S
N787        O791   1.261       .  A
N787        O792   1.260       .  A
N790        O794   1.251       .  A
N790        O793   1.263       .  A
C795        C796   1.414       .  A
C795        C800   1.407       .  A
C795        H802   1.078       .  S
C796        C797   1.432       .  A
C797        C798   1.407       .  A
C797        N804   1.430       .  S
C798        C799   1.398       .  A
C798        H803   1.085       .  S
C799        C800   1.410       .  A
C800        N801   1.443       .  S
N801        O805   1.263       .  A
N801        O806   1.261       .  A
N804        O808   1.262       .  A
N804        O807   1.263       .  A
C809        C810   1.413       .  A
C809        C814   1.406       .  A
C809        H816   1.082       .  S
C810        C811   1.433       .  A
C811        C812   1.413       .  A
C811        N818   1.422       .  S
C812        C813   1.416       .  A
C812        H817   1.083       .  S
C813        C814   1.440       .  A
C814        N815   1.426       .  S
N815        O819   1.259       .  A
N815        O820   1.261       .  A
N818        O822   1.260       .  A
N818        O821   1.260       .  A
C823        C824   1.412       .  A
C823        C828   1.408       .  A
C823        H830   1.073       .  S
C824        C825   1.437       .  A
C825        C826   1.404       .  A
C825        N832   1.431       .  S
C826        C827   1.393       .  A
C826        H831   1.085       .  S
C827        C828   1.411       .  A
C828        N829   1.444       .  S
N829       O1149   1.263       .  A
N829       O1150   1.262       .  A
N832        O836   1.262       .  A
N832        O835   1.262       .  A
O833       N1145   1.263       .  A
O834       N1145   1.262   1_554  A
C837        C838   1.407       .  A
C837        C842   1.438       .  A
C837        H844   1.081       .  S
C838        C839   1.401       .  A
C839        C840   1.392       .  A
C839        N846   1.432       .  S
C840        C841   1.414       .  A
C840        H845   1.064       .  S
C841        C842   1.471       .  A
C842        N843   1.440       .  S
N843        O847   1.262       .  A
N843        O848   1.262       .  A
N846        O850   1.259       .  A
N846        O849   1.263       .  A
C851        C852   1.415       .  A
C851        C856   1.438       .  A
C851        H858   1.067       .  S
C852        C853   1.431       .  A
C853        C854   1.433       .  A
C853        N860   1.432       .  S
C854        C855   1.431       .  A
C854        H859   1.074       .  S
C855        C856   1.432       .  A
C856        N857   1.429       .  S
N857        O861   1.262       .  A
N857        O862   1.263       .  A
N860        O864   1.259       .  A
N860        O863   1.261       .  A
C865        C866   1.420       .  A
C865        C870   1.401       .  A
C865        H872   1.079       .  S
C866        C867   1.433       .  A
C867        C868   1.409       .  A
C867        N874   1.430       .  S
C868        C869   1.400       .  A
C868        H873   1.084       .  S
C869        C870   1.401       .  A
C870        N871   1.430       .  S
N871       O1191   1.262       .  A
N871       O1192   1.262       .  A
N874        O878   1.261       .  A
N874        O877   1.262       .  A
O875       N1187   1.262       .  A
O876       N1187   1.262   1_554  A
C879        C880   1.418       .  A
C879        C884   1.446       .  A
C879        H886   1.080       .  S
C880        C881   1.428       .  A
C881        C882   1.416       .  A
C881        N888   1.435       .  S
C882        C883   1.424       .  A
C882        H887   1.080       .  S
C883        C884   1.434       .  A
C884        N885   1.432       .  S
N885        O889   1.262       .  A
N885        O890   1.263       .  A
N888        O892   1.261       .  A
N888        O891   1.261       .  A
C893        C894   1.407       .  A
C893        C898   1.404       .  A
C893        H900   1.074       .  S
C894        C895   1.434       .  A
C895        C896   1.425       .  A
C895        N902   1.432       .  S
C896        C897   1.417       .  A
C896        H901   1.072       .  S
C897        C898   1.431       .  A
C898        N899   1.428       .  S
N899        O903   1.260       .  A
N899        O904   1.256       .  A
N902        O906   1.261       .  A
N902        O905   1.260       .  A
C907        C908   1.408       .  A
C907        C912   1.396       .  A
C907        H914   1.083       .  S
C908        C909   1.431       .  A
C909        C910   1.410       .  A
C909        N916   1.434       .  S
C910        C911   1.403       .  A
C910        H915   1.084       .  S
C911        C912   1.412       .  A
C912        N913   1.439       .  S
N913        O917   1.261       .  A
N913        O918   1.264       .  A
N916        O920   1.261       .  A
N916        O919   1.262       .  A
C921        C922   1.404       .  A
C921        C926   1.380       .  A
C921        H928   1.058       .  S
C922        C923   1.450       .  A
C923        C924   1.440       .  A
C923        N930   1.429       .  S
C924        C925   1.421       .  A
C924        H929   1.082       .  S
C925        C926   1.389       .  A
C926        N927   1.393       .  S
N927        O931   1.259       .  A
N927        O932   1.252       .  A
N930        O934   1.263       .  A
N930        O933   1.261       .  A
C935        C936   1.388       .  A
C935        C940   1.375       .  A
C935        H942   1.048       .  S
C936        C937   1.433       .  A
C937        C938   1.439       .  A
C937        N944   1.431       .  S
C938        C939   1.436       .  A
C938        H943   1.079       .  S
C939        C940   1.402       .  A
C940        N941   1.412       .  S
N941        O945   1.254       .  A
N941        O946   1.255       .  A
N944        O948   1.262       .  A
N944        O947   1.262       .  A
C949       C1210   1.588       .  S
C949       C1224   1.555       .  S
C949       C1238   1.613       .  S
C949       C1255   1.621       .  S
C950       C1168   1.623       .  S
C950       C1182   1.570       .  S
C950       C1199   1.619       .  S
C950       C1241   1.599       .  S
C951       C1126   1.601       .  S
C951       C1140   1.575       .  S
C951       C1154   1.613       .  S
C951       C1252   1.614       .  S
C952       C1098   1.620       .  S
C952       C1112   1.575       .  S
C952       C1157   1.634       .  S
C952       C1196   1.622       .  S
C953       C1056   1.547       .  S
C953       C1073   1.645       .  S
C953       C1084   1.635       .  S
C953       C1213   1.593       .  S
C954       C1031   1.579       .  S
C954       C1045   1.633       .  S
C954       C1070   1.604       .  S
C954       C1171   1.639       .  S
C955       C1000   1.568       .  S
C955       C1014   1.629       .  S
C955       C1087   1.596       .  S
C955       C1129   1.577       .  S
C956        C989   1.563       .  S
C956       C1017   1.593       .  S
C956       C1042   1.614       .  S
C956       C1101   1.614       .  S
O957        V965   1.909   1_455  S
O957        C967   1.265       .  A
O958       V1913   1.912   1_556  S
O958        C968   1.266       .  A
O959        C969   1.268       .  A
O960       V2229   1.900       .  S
O960        C970   1.264       .  A
O961        V966   1.897       .  S
O961        C970   1.262       .  A
O962       V1914   1.907   1_456  S
O962        C969   1.265       .  A
O963        C968   1.263       .  A
O964       V2230   1.904   1_455  S
O964        C967   1.268       .  A
V965       O1906   1.912       .  S
V965       O2224   1.903       .  S
V965       V2230   2.087       .  T
V966       O1910   1.903       .  S
V966       O2228   1.903       .  S
V966       V2229   2.087       .  T
C967       C1028   1.491       .  S
C968       C1143   1.479       .  S
C969       C1185   1.488       .  S
C970       C1003   1.468       .  S
O971        C981   1.269       .  A
O972        C982   1.267       .  A
O973        V979   1.909   1_565  S
O973        C983   1.265       .  A
O974        C984   1.263       .  A
O975        C984   1.267       .  A
O976        V980   1.907   1_565  S
O976        C983   1.265       .  A
O977        C982   1.264       .  A
O978        C981   1.266       .  A
V979        V980   2.086       .  T
C981       C1115   1.493       .  S
C982       C1059   1.479       .  S
C983        C986   1.482       .  S
C984       C1227   1.481       .  S
C985        C986   1.402       .  A
C985        C990   1.416       .  A
C985        H992   1.084       .  S
C986        C987   1.402       .  A
C987        C988   1.397       .  A
C987        N994   1.434       .  S
C988        C989   1.418       .  A
C988        H993   1.080       .  S
C989        C990   1.435       .  A
C990        N991   1.434       .  S
N991        O995   1.263       .  A
N991        O996   1.261       .  A
N994        O998   1.262       .  A
N994        O997   1.261       .  A
C999       C1000   1.415       .  A
C999       C1004   1.397       .  A
C999       H1006   1.077       .  S
C1000      C1001   1.444       .  A
C1001      C1002   1.403       .  A
C1001      N1008   1.434       .  S
C1002      C1003   1.391       .  A
C1002      H1007   1.084       .  S
C1003      C1004   1.400       .  A
C1004      N1005   1.431       .  S
N1005      O1009   1.259       .  A
N1005      O1010   1.262       .  A
N1008      O1012   1.261       .  A
N1008      O1011   1.263       .  A
C1013      C1014   1.427       .  A
C1013      C1018   1.435       .  A
C1013      H1020   1.078       .  S
C1014      C1015   1.423       .  A
C1015      C1016   1.381       .  A
C1015      N1022   1.418       .  S
C1016      C1017   1.386       .  A
C1016      H1021   1.069       .  S
C1017      C1018   1.439       .  A
C1018      N1019   1.427       .  S
N1019      O1023   1.262       .  A
N1019      O1024   1.262       .  A
N1022      O1026   1.260       .  A
N1022      O1025   1.253       .  A
C1027      C1028   1.392       .  A
C1027      C1032   1.399       .  A
C1027      H1034   1.084       .  S
C1028      C1029   1.411       .  A
C1029      C1030   1.410       .  A
C1029      N1036   1.428       .  S
C1030      C1031   1.414       .  A
C1030      H1035   1.077       .  S
C1031      C1032   1.440       .  A
C1032      N1033   1.427       .  S
N1033      O1037   1.263       .  A
N1033      O1038   1.262       .  A
N1036      O1040   1.261       .  A
N1036      O1039   1.262       .  A
C1041      C1042   1.414       .  A
C1041      C1046   1.427       .  A
C1041      H1048   1.074       .  S
C1042      C1043   1.430       .  A
C1043      C1044   1.420       .  A
C1043      N1050   1.431       .  S
C1044      C1045   1.416       .  A
C1044      H1049   1.063       .  S
C1045      C1046   1.442       .  A
C1046      N1047   1.443       .  S
N1047      O1051   1.262       .  A
N1047      O1052   1.263       .  A
N1050      O1054   1.262       .  A
N1050      O1053   1.262       .  A
C1055      C1056   1.407       .  A
C1055      C1060   1.397       .  A
C1055      H1062   1.084       .  S
C1056      C1057   1.433       .  A
C1057      C1058   1.406       .  A
C1057      N1064   1.428       .  S
C1058      C1059   1.395       .  A
C1058      H1063   1.084       .  S
C1059      C1060   1.402       .  A
C1060      N1061   1.418       .  S
N1061      O1065   1.262       .  A
N1061      O1066   1.262       .  A
N1064      O1068   1.262       .  A
N1064      O1067   1.261       .  A
C1069      C1070   1.453       .  A
C1069      C1074   1.457       .  A
C1069      H1076   1.073       .  S
C1070      C1071   1.414       .  A
C1071      C1072   1.377       .  A
C1071      N1078   1.443       .  S
C1072      C1073   1.382       .  A
C1072      H1077   1.078       .  S
C1073      C1074   1.440       .  A
C1074      N1075   1.429       .  S
N1075      O1079   1.261       .  A
N1075      O1080   1.262       .  A
N1078      O1082   1.247       .  A
N1078      O1081   1.255       .  A
C1083      C1084   1.382       .  A
C1083      C1088   1.367       .  A
C1083      H1090   1.057       .  S
C1084      C1085   1.466       .  A
C1085      C1086   1.468       .  A
C1085      N1092   1.430       .  S
C1086      C1087   1.442       .  A
C1086      H1091   1.078       .  S
C1087      C1088   1.382       .  A
C1088      N1089   1.435       .  S
N1089      O1093   1.263       .  A
N1089      O1094   1.259       .  A
N1092      O1096   1.262       .  A
N1092      O1095   1.260       .  A
C1097      C1098   1.423       .  A
C1097      C1102   1.431       .  A
C1097      H1104   1.063       .  S
C1098      C1099   1.430       .  A
C1099      C1100   1.389       .  A
C1099      N1106   1.427       .  S
C1100      C1101   1.408       .  A
C1100      H1105   1.057       .  S
C1101      C1102   1.437       .  A
C1102      N1103   1.432       .  S
N1103      O1107   1.260       .  A
N1103      O1108   1.261       .  A
N1106      O1110   1.258       .  A
N1106      O1109   1.259       .  A
C1111      C1112   1.413       .  A
C1111      C1116   1.406       .  A
C1111      H1118   1.079       .  S
C1112      C1113   1.435       .  A
C1113      C1114   1.413       .  A
C1113      N1120   1.428       .  S
C1114      C1115   1.396       .  A
C1114      H1119   1.085       .  S
C1115      C1116   1.406       .  A
C1116      N1117   1.432       .  S
N1117      O1121   1.264       .  A
N1117      O1122   1.262       .  A
N1120      O1124   1.261       .  A
N1120      O1123   1.264       .  A
C1125      C1126   1.422       .  A
C1125      C1130   1.412       .  A
C1125      H1132   1.083       .  S
C1126      C1127   1.430       .  A
C1127      C1128   1.404       .  A
C1127      N1134   1.431       .  S
C1128      C1129   1.413       .  A
C1128      H1133   1.084       .  S
C1129      C1130   1.429       .  A
C1130      N1131   1.430       .  S
N1131      O1135   1.260       .  A
N1131      O1136   1.261       .  A
N1134      O1138   1.262       .  A
N1134      O1137   1.259       .  A
C1139      C1140   1.414       .  A
C1139      C1144   1.411       .  A
C1139      H1146   1.070       .  S
C1140      C1141   1.443       .  A
C1141      C1142   1.404       .  A
C1141      N1148   1.432       .  S
C1142      C1143   1.388       .  A
C1142      H1147   1.085       .  S
C1143      C1144   1.410       .  A
C1144      N1145   1.443       .  S
N1148      O1152   1.261       .  A
N1148      O1151   1.263       .  A
C1153      C1154   1.411       .  A
C1153      C1158   1.441       .  A
C1153      H1160   1.081       .  S
C1154      C1155   1.410       .  A
C1155      C1156   1.403       .  A
C1155      N1162   1.432       .  S
C1156      C1157   1.415       .  A
C1156      H1161   1.071       .  S
C1157      C1158   1.464       .  A
C1158      N1159   1.437       .  S
N1159      O1163   1.262       .  A
N1159      O1164   1.261       .  A
N1162      O1166   1.258       .  A
N1162      O1165   1.263       .  A
C1167      C1168   1.418       .  A
C1167      C1172   1.436       .  A
C1167      H1174   1.062       .  S
C1168      C1169   1.431       .  A
C1169      C1170   1.431       .  A
C1169      N1176   1.433       .  S
C1170      C1171   1.427       .  A
C1170      H1175   1.076       .  S
C1171      C1172   1.429       .  A
C1172      N1173   1.434       .  S
N1173      O1177   1.262       .  A
N1173      O1178   1.263       .  A
N1176      O1180   1.260       .  A
N1176      O1179   1.261       .  A
C1181      C1182   1.420       .  A
C1181      C1186   1.403       .  A
C1181      H1188   1.079       .  S
C1182      C1183   1.434       .  A
C1183      C1184   1.412       .  A
C1183      N1190   1.431       .  S
C1184      C1185   1.402       .  A
C1184      H1189   1.084       .  S
C1185      C1186   1.401       .  A
C1186      N1187   1.429       .  S
N1190      O1194   1.261       .  A
N1190      O1193   1.262       .  A
C1195      C1196   1.412       .  A
C1195      C1200   1.437       .  A
C1195      H1202   1.081       .  S
C1196      C1197   1.426       .  A
C1197      C1198   1.410       .  A
C1197      N1204   1.433       .  S
C1198      C1199   1.422       .  A
C1198      H1203   1.080       .  S
C1199      C1200   1.430       .  A
C1200      N1201   1.433       .  S
N1201      O1205   1.262       .  A
N1201      O1206   1.263       .  A
N1204      O1208   1.261       .  A
N1204      O1207   1.262       .  A
C1209      C1210   1.410       .  A
C1209      C1214   1.404       .  A
C1209      H1216   1.074       .  S
C1210      C1211   1.430       .  A
C1211      C1212   1.424       .  A
C1211      N1218   1.433       .  S
C1212      C1213   1.420       .  A
C1212      H1217   1.071       .  S
C1213      C1214   1.422       .  A
C1214      N1215   1.418       .  S
N1215      O1219   1.261       .  A
N1215      O1220   1.255       .  A
N1218      O1222   1.260       .  A
N1218      O1221   1.261       .  A
C1223      C1224   1.408       .  A
C1223      C1228   1.398       .  A
C1223      H1230   1.083       .  S
C1224      C1225   1.432       .  A
C1225      C1226   1.409       .  A
C1225      N1232   1.434       .  S
C1226      C1227   1.401       .  A
C1226      H1231   1.084       .  S
C1227      C1228   1.412       .  A
C1228      N1229   1.439       .  S
N1229      O1233   1.261       .  A
N1229      O1234   1.264       .  A
N1232      O1236   1.261       .  A
N1232      O1235   1.262       .  A
C1237      C1238   1.401       .  A
C1237      C1242   1.377       .  A
C1237      H1244   1.059       .  S
C1238      C1239   1.449       .  A
C1239      C1240   1.435       .  A
C1239      N1246   1.429       .  S
C1240      C1241   1.419       .  A
C1240      H1245   1.081       .  S
C1241      C1242   1.393       .  A
C1242      N1243   1.397       .  S
N1243      O1247   1.261       .  A
N1243      O1248   1.255       .  A
N1246      O1250   1.262       .  A
N1246      O1249   1.261       .  A
C1251      C1252   1.389       .  A
C1251      C1256   1.380       .  A
C1251      H1258   1.057       .  S
C1252      C1253   1.431       .  A
C1253      C1254   1.440       .  A
C1253      N1260   1.431       .  S
C1254      C1255   1.439       .  A
C1254      H1259   1.077       .  S
C1255      C1256   1.409       .  A
C1256      N1257   1.410       .  S
N1257      O1261   1.259       .  A
N1257      O1262   1.256       .  A
N1260      O1264   1.262       .  A
N1260      O1263   1.262       .  A
C1265      C1526   1.587       .  S
C1265      C1540   1.552       .  S
C1265      C1554   1.619       .  S
C1265      C1571   1.613       .  S
C1266      C1484   1.626       .  S
C1266      C1498   1.561       .  S
C1266      C1515   1.629       .  S
C1266      C1557   1.605       .  S
C1267      C1442   1.608       .  S
C1267      C1456   1.574       .  S
C1267      C1470   1.603       .  S
C1267      C1568   1.611       .  S
C1268      C1414   1.635       .  S
C1268      C1428   1.574       .  S
C1268      C1473   1.628       .  S
C1268      C1512   1.639       .  S
C1269      C1372   1.561       .  S
C1269      C1389   1.630       .  S
C1269      C1400   1.650       .  S
C1269      C1529   1.598       .  S
C1270      C1347   1.581       .  S
C1270      C1361   1.627       .  S
C1270      C1386   1.592       .  S
C1270      C1487   1.644       .  S
C1271      C1316   1.569       .  S
C1271      C1330   1.642       .  S
C1271      C1403   1.601       .  S
C1271      C1445   1.600       .  S
C1272      C1305   1.560       .  S
C1272      C1333   1.591       .  S
C1272      C1358   1.619       .  S
C1272      C1417   1.626       .  S
O1273      V1281   1.911       .  S
O1273      C1283   1.265       .  A
O1274      C1284   1.269       .  A
O1275      V1597   1.911       .  S
O1275      C1285   1.267       .  A
O1276      C1286   1.265       .  A
O1277      V1282   1.896       .  S
O1277      C1286   1.262       .  A
O1278      C1285   1.262       .  A
O1279      V1598   1.907       .  S
O1279      C1284   1.265       .  A
O1280      C1283   1.268       .  A
V1281      O1591   1.912   1_554  S
V1282      O1595   1.903   1_554  S
C1283      C1344   1.493       .  S
C1284      C1459   1.489       .  S
C1285      C1501   1.476       .  S
C1286      C1319   1.469       .  S
O1287      V1611   1.914       .  S
O1287      C1297   1.267       .  A
O1288      V1927   1.916       .  S
O1288      C1298   1.267       .  A
O1289      V1295   1.911       .  S
O1289      C1299   1.265       .  A
O1290      V2243   1.902       .  S
O1290      C1300   1.263       .  A
O1291      V2244   1.906   1_545  S
O1291      C1300   1.266       .  A
O1292      V1296   1.911       .  S
O1292      C1299   1.267       .  A
O1293      V1928   1.907   1_545  S
O1293      C1298   1.265       .  A
O1294      V1612   1.904       .  S
O1294      C1297   1.265       .  A
V1295      O1603   1.915   1_554  S
V1295      O1920   1.911       .  S
V1295      O2238   1.901   1_554  S
V1295      V1296   2.085       .  T
V1296      O2239   1.908   1_554  S
V1296      O1925   1.903       .  S
V1296      O1610   1.900   1_554  S
C1297      C1431   1.491       .  S
C1298      C1375   1.484       .  S
C1299      C1302   1.485       .  S
C1300      C1543   1.480       .  S
C1301      C1302   1.405       .  A
C1301      C1306   1.418       .  A
C1301      H1308   1.084       .  S
C1302      C1303   1.401       .  A
C1303      C1304   1.397       .  A
C1303      N1310   1.432       .  S
C1304      C1305   1.419       .  A
C1304      H1309   1.082       .  S
C1305      C1306   1.430       .  A
C1306      N1307   1.431       .  S
N1307      O1311   1.262       .  A
N1307      O1312   1.262       .  A
N1310      O1314   1.262       .  A
N1310      O1313   1.261       .  A
C1315      C1316   1.417       .  A
C1315      C1320   1.397       .  A
C1315      H1322   1.076       .  S
C1316      C1317   1.444       .  A
C1317      C1318   1.405       .  A
C1317      N1324   1.433       .  S
C1318      C1319   1.390       .  A
C1318      H1323   1.083       .  S
C1319      C1320   1.398       .  A
C1320      N1321   1.431       .  S
N1321      O1325   1.259       .  A
N1321      O1326   1.262       .  A
N1324      O1328   1.261       .  A
N1324      O1327   1.263       .  A
C1329      C1330   1.430       .  A
C1329      C1334   1.439       .  A
C1329      H1336   1.078       .  S
C1330      C1331   1.425       .  A
C1331      C1332   1.382       .  A
C1331      N1338   1.408       .  S
C1332      C1333   1.378       .  A
C1332      H1337   1.071       .  S
C1333      C1334   1.439       .  A
C1334      N1335   1.429       .  S
N1335      O1339   1.262       .  A
N1335      O1340   1.262       .  A
N1338      O1342   1.264       .  A
N1338      O1341   1.245       .  A
C1343      C1344   1.393       .  A
C1343      C1348   1.400       .  A
C1343      H1350   1.084       .  S
C1344      C1345   1.411       .  A
C1345      C1346   1.410       .  A
C1345      N1352   1.428       .  S
C1346      C1347   1.416       .  A
C1346      H1351   1.077       .  S
C1347      C1348   1.439       .  A
C1348      N1349   1.426       .  S
N1349      O1353   1.263       .  A
N1349      O1354   1.262       .  A
N1352      O1356   1.261       .  A
N1352      O1355   1.262       .  A
C1357      C1358   1.415       .  A
C1357      C1362   1.420       .  A
C1357      H1364   1.077       .  S
C1358      C1359   1.433       .  A
C1359      C1360   1.422       .  A
C1359      N1366   1.435       .  S
C1360      C1361   1.415       .  A
C1360      H1365   1.064       .  S
C1361      C1362   1.441       .  A
C1362      N1363   1.439       .  S
N1363      O1367   1.262       .  A
N1363      O1368   1.262       .  A
N1366      O1370   1.263       .  A
N1366      O1369   1.261       .  A
C1371      C1372   1.412       .  A
C1371      C1376   1.403       .  A
C1371      H1378   1.084       .  S
C1372      C1373   1.438       .  A
C1373      C1374   1.406       .  A
C1373      N1380   1.428       .  S
C1374      C1375   1.393       .  A
C1374      H1379   1.085       .  S
C1375      C1376   1.403       .  A
C1376      N1377   1.420       .  S
N1377      O1381   1.262       .  A
N1377      O1382   1.262       .  A
N1380      O1384   1.262       .  A
N1380      O1383   1.261       .  A
C1385      C1386   1.450       .  A
C1385      C1390   1.445       .  A
C1385      H1392   1.075       .  S
C1386      C1387   1.425       .  A
C1387      C1388   1.375       .  A
C1387      N1394   1.463       .  S
C1388      C1389   1.385       .  A
C1388      H1393   1.082       .  S
C1389      C1390   1.429       .  A
C1390      N1391   1.426       .  S
N1391      O1395   1.261       .  A
N1391      O1396   1.262       .  A
N1394      O1398   1.260       .  A
N1394      O1397   1.257       .  A
C1399      C1400   1.396       .  A
C1399      C1404   1.369       .  A
C1399      H1406   1.069       .  S
C1400      C1401   1.459       .  A
C1401      C1402   1.463       .  A
C1401      N1408   1.430       .  S
C1402      C1403   1.433       .  A
C1402      H1407   1.079       .  S
C1403      C1404   1.387       .  A
C1404      N1405   1.429       .  S
N1405      O1409   1.263       .  A
N1405      O1410   1.260       .  A
N1408      O1412   1.262       .  A
N1408      O1411   1.260       .  A
C1413      C1414   1.431       .  A
C1413      C1418   1.443       .  A
C1413      H1420   1.060       .  S
C1414      C1415   1.428       .  A
C1415      C1416   1.394       .  A
C1415      N1422   1.408       .  S
C1416      C1417   1.395       .  A
C1416      H1421   1.054       .  S
C1417      C1418   1.435       .  A
C1418      N1419   1.430       .  S
N1419      O1423   1.261       .  A
N1419      O1424   1.260       .  A
N1422      O1426   1.252       .  A
N1422      O1425   1.262       .  A
C1427      C1428   1.416       .  A
C1427      C1432   1.409       .  A
C1427      H1434   1.078       .  S
C1428      C1429   1.432       .  A
C1429      C1430   1.411       .  A
C1429      N1436   1.430       .  S
C1430      C1431   1.400       .  A
C1430      H1435   1.085       .  S
C1431      C1432   1.411       .  A
C1432      N1433   1.444       .  S
N1433      O1437   1.263       .  A
N1433      O1438   1.261       .  A
N1436      O1440   1.262       .  A
N1436      O1439   1.263       .  A
C1441      C1442   1.417       .  A
C1441      C1446   1.411       .  A
C1441      H1448   1.083       .  S
C1442      C1443   1.433       .  A
C1443      C1444   1.411       .  A
C1443      N1450   1.423       .  S
C1444      C1445   1.415       .  A
C1444      H1449   1.083       .  S
C1445      C1446   1.438       .  A
C1446      N1447   1.427       .  S
N1447      O1451   1.259       .  A
N1447      O1452   1.261       .  A
N1450      O1454   1.261       .  A
N1450      O1453   1.260       .  A
C1455      C1456   1.413       .  A
C1455      C1460   1.412       .  A
C1455      H1462   1.073       .  S
C1456      C1457   1.437       .  A
C1457      C1458   1.409       .  A
C1457      N1464   1.430       .  S
C1458      C1459   1.396       .  A
C1458      H1463   1.085       .  S
C1459      C1460   1.413       .  A
C1460      N1461   1.442       .  S
N1461      O1781   1.263       .  A
N1461      O1782   1.262       .  A
N1464      O1468   1.262       .  A
N1464      O1467   1.262       .  A
O1465      N1777   1.263       .  A
O1466      N1777   1.262   1_554  A
C1469      C1470   1.408       .  A
C1469      C1474   1.437       .  A
C1469      H1476   1.081       .  S
C1470      C1471   1.401       .  A
C1471      C1472   1.395       .  A
C1471      N1478   1.432       .  S
C1472      C1473   1.414       .  A
C1472      H1477   1.069       .  S
C1473      C1474   1.468       .  A
C1474      N1475   1.439       .  S
N1475      O1479   1.262       .  A
N1475      O1480   1.261       .  A
N1478      O1482   1.259       .  A
N1478      O1481   1.263       .  A
C1483      C1484   1.414       .  A
C1483      C1488   1.438       .  A
C1483      H1490   1.067       .  S
C1484      C1485   1.430       .  A
C1485      C1486   1.433       .  A
C1485      N1492   1.433       .  S
C1486      C1487   1.430       .  A
C1486      H1491   1.074       .  S
C1487      C1488   1.431       .  A
C1488      N1489   1.430       .  S
N1489      O1493   1.262       .  A
N1489      O1494   1.263       .  A
N1492      O1496   1.260       .  A
N1492      O1495   1.261       .  A
C1497      C1498   1.420       .  A
C1497      C1502   1.399       .  A
C1497      H1504   1.079       .  S
C1498      C1499   1.433       .  A
C1499      C1500   1.406       .  A
C1499      N1506   1.431       .  S
C1500      C1501   1.399       .  A
C1500      H1505   1.084       .  S
C1501      C1502   1.399       .  A
C1502      N1503   1.429       .  S
N1503      O1823   1.262       .  A
N1503      O1824   1.262       .  A
N1506      O1510   1.262       .  A
N1506      O1509   1.262       .  A
O1507      N1819   1.262       .  A
O1508      N1819   1.262   1_554  A
C1511      C1512   1.416       .  A
C1511      C1516   1.444       .  A
C1511      H1518   1.080       .  S
C1512      C1513   1.429       .  A
C1513      C1514   1.415       .  A
C1513      N1520   1.435       .  S
C1514      C1515   1.423       .  A
C1514      H1519   1.080       .  S
C1515      C1516   1.434       .  A
C1516      N1517   1.431       .  S
N1517      O1521   1.262       .  A
N1517      O1522   1.263       .  A
N1520      O1524   1.261       .  A
N1520      O1523   1.261       .  A
C1525      C1526   1.408       .  A
C1525      C1530   1.404       .  A
C1525      H1532   1.075       .  S
C1526      C1527   1.434       .  A
C1527      C1528   1.427       .  A
C1527      N1534   1.432       .  S
C1528      C1529   1.417       .  A
C1528      H1533   1.071       .  S
C1529      C1530   1.428       .  A
C1530      N1531   1.427       .  S
N1531      O1535   1.260       .  A
N1531      O1536   1.256       .  A
N1534      O1538   1.261       .  A
N1534      O1537   1.261       .  A
C1539      C1540   1.408       .  A
C1539      C1544   1.398       .  A
C1539      H1546   1.083       .  S
C1540      C1541   1.431       .  A
C1541      C1542   1.409       .  A
C1541      N1548   1.434       .  S
C1542      C1543   1.402       .  A
C1542      H1547   1.084       .  S
C1543      C1544   1.412       .  A
C1544      N1545   1.439       .  S
N1545      O1549   1.261       .  A
N1545      O1550   1.264       .  A
N1548      O1552   1.261       .  A
N1548      O1551   1.262       .  A
C1553      C1554   1.403       .  A
C1553      C1558   1.378       .  A
C1553      H1560   1.057       .  S
C1554      C1555   1.449       .  A
C1555      C1556   1.439       .  A
C1555      N1562   1.429       .  S
C1556      C1557   1.422       .  A
C1556      H1561   1.082       .  S
C1557      C1558   1.391       .  A
C1558      N1559   1.393       .  S
N1559      O1563   1.260       .  A
N1559      O1564   1.253       .  A
N1562      O1566   1.262       .  A
N1562      O1565   1.261       .  A
C1567      C1568   1.390       .  A
C1567      C1572   1.378       .  A
C1567      H1574   1.050       .  S
C1568      C1569   1.431       .  A
C1569      C1570   1.439       .  A
C1569      N1576   1.430       .  S
C1570      C1571   1.438       .  A
C1570      H1575   1.078       .  S
C1571      C1572   1.403       .  A
C1572      N1573   1.413       .  S
N1573      O1577   1.256       .  A
N1573      O1578   1.256       .  A
N1576      O1580   1.262       .  A
N1576      O1579   1.262       .  A
C1581      C1842   1.586       .  S
C1581      C1856   1.550       .  S
C1581      C1870   1.620       .  S
C1581      C1887   1.611       .  S
C1582      C1800   1.629       .  S
C1582      C1814   1.564       .  S
C1582      C1831   1.631       .  S
C1582      C1873   1.604       .  S
C1583      C1758   1.608       .  S
C1583      C1772   1.570       .  S
C1583      C1786   1.601       .  S
C1583      C1884   1.612       .  S
C1584      C1730   1.629       .  S
C1584      C1744   1.575       .  S
C1584      C1789   1.630       .  S
C1584      C1828   1.637       .  S
C1585      C1688   1.556       .  S
C1585      C1705   1.626       .  S
C1585      C1716   1.653       .  S
C1585      C1845   1.599       .  S
C1586      C1663   1.583       .  S
C1586      C1677   1.629       .  S
C1586      C1702   1.590       .  S
C1586      C1803   1.645       .  S
C1587      C1632   1.567       .  S
C1587      C1646   1.644       .  S
C1587      C1719   1.599       .  S
C1587      C1761   1.603       .  S
C1588      C1621   1.560       .  S
C1588      C1649   1.589       .  S
C1588      C1674   1.619       .  S
C1588      C1733   1.623       .  S
O1589      V1597   1.913       .  S
O1589      C1599   1.266       .  A
O1590      C1600   1.267       .  A
O1591      C1601   1.267       .  A
O1592      C1602   1.264       .  A
O1593      V1598   1.894       .  S
O1593      C1602   1.261       .  A
O1594      C1601   1.263       .  A
O1595      C1600   1.264       .  A
O1596      C1599   1.269       .  A
C1599      C1660   1.496       .  S
C1600      C1775   1.484       .  S
C1601      C1817   1.479       .  S
C1602      C1635   1.465       .  S
O1603      C1613   1.267       .  A
O1604      V2243   1.909       .  S
O1604      C1614   1.266       .  A
O1605      V1611   1.912       .  S
O1605      C1615   1.265       .  A
O1606      V1927   1.898   1_556  S
O1606      C1616   1.262       .  A
O1607      V1928   1.906   1_546  S
O1607      C1616   1.266       .  A
O1608      V1612   1.913       .  S
O1608      C1615   1.267       .  A
O1609      V2244   1.906   1_545  S
O1609      C1614   1.265       .  A
O1610      C1613   1.265       .  A
V1611      O2236   1.912       .  S
V1611      O1922   1.900       .  S
V1611      V1612   2.085       .  T
V1612      O1923   1.910       .  S
V1612      O2241   1.907       .  S
C1613      C1747   1.489       .  S
C1614      C1691   1.479       .  S
C1615      C1618   1.487       .  S
C1616      C1859   1.477       .  S
C1617      C1618   1.405       .  A
C1617      C1622   1.419       .  A
C1617      H1624   1.084       .  S
C1618      C1619   1.403       .  A
C1619      C1620   1.397       .  A
C1619      N1626   1.433       .  S
C1620      C1621   1.417       .  A
C1620      H1625   1.082       .  S
C1621      C1622   1.431       .  A
C1622      N1623   1.432       .  S
N1623      O1627   1.262       .  A
N1623      O1628   1.261       .  A
N1626      O1630   1.262       .  A
N1626      O1629   1.262       .  A
C1631      C1632   1.418       .  A
C1631      C1636   1.396       .  A
C1631      H1638   1.076       .  S
C1632      C1633   1.441       .  A
C1633      C1634   1.403       .  A
C1633      N1640   1.431       .  S
C1634      C1635   1.389       .  A
C1634      H1639   1.083       .  S
C1635      C1636   1.396       .  A
C1636      N1637   1.432       .  S
N1637      O1641   1.260       .  A
N1637      O1642   1.262       .  A
N1640      O1644   1.262       .  A
N1640      O1643   1.263       .  A
C1645      C1646   1.433       .  A
C1645      C1650   1.439       .  A
C1645      H1652   1.078       .  S
C1646      C1647   1.421       .  A
C1647      C1648   1.381       .  A
C1647      N1654   1.407       .  S
C1648      C1649   1.376       .  A
C1648      H1653   1.067       .  S
C1649      C1650   1.437       .  A
C1650      N1651   1.430       .  S
N1651      O1655   1.262       .  A
N1651      O1656   1.262       .  A
N1654      O1658   1.264       .  A
N1654      O1657   1.245       .  A
C1659      C1660   1.393       .  A
C1659      C1664   1.401       .  A
C1659      H1666   1.084       .  S
C1660      C1661   1.411       .  A
C1661      C1662   1.412       .  A
C1661      N1668   1.428       .  S
C1662      C1663   1.418       .  A
C1662      H1667   1.078       .  S
C1663      C1664   1.439       .  A
C1664      N1665   1.426       .  S
N1665      O1669   1.263       .  A
N1665      O1670   1.262       .  A
N1668      O1672   1.261       .  A
N1668      O1671   1.262       .  A
C1673      C1674   1.414       .  A
C1673      C1678   1.421       .  A
C1673      H1680   1.078       .  S
C1674      C1675   1.433       .  A
C1675      C1676   1.423       .  A
C1675      N1682   1.431       .  S
C1676      C1677   1.415       .  A
C1676      H1681   1.064       .  S
C1677      C1678   1.442       .  A
C1678      N1679   1.439       .  S
N1679      O1683   1.262       .  A
N1679      O1684   1.262       .  A
N1682      O1686   1.263       .  A
N1682      O1685   1.262       .  A
C1687      C1688   1.410       .  A
C1687      C1692   1.398       .  A
C1687      H1694   1.084       .  S
C1688      C1689   1.438       .  A
C1689      C1690   1.406       .  A
C1689      N1696   1.428       .  S
C1690      C1691   1.393       .  A
C1690      H1695   1.085       .  S
C1691      C1692   1.401       .  A
C1692      N1693   1.419       .  S
N1693      O1697   1.262       .  A
N1693      O1698   1.262       .  A
N1696      O1700   1.262       .  A
N1696      O1699   1.261       .  A
C1701      C1702   1.449       .  A
C1701      C1706   1.445       .  A
C1701      H1708   1.075       .  S
C1702      C1703   1.425       .  A
C1703      C1704   1.374       .  A
C1703      N1710   1.461       .  S
C1704      C1705   1.382       .  A
C1704      H1709   1.081       .  S
C1705      C1706   1.431       .  A
C1706      N1707   1.427       .  S
N1707      O1711   1.261       .  A
N1707      O1712   1.262       .  A
N1710      O1714   1.260       .  A
N1710      O1713   1.256       .  A
C1715      C1716   1.400       .  A
C1715      C1720   1.371       .  A
C1715      H1722   1.070       .  S
C1716      C1717   1.459       .  A
C1717      C1718   1.463       .  A
C1717      N1724   1.431       .  S
C1718      C1719   1.431       .  A
C1718      H1723   1.080       .  S
C1719      C1720   1.386       .  A
C1720      N1721   1.429       .  S
N1721      O1725   1.263       .  A
N1721      O1726   1.260       .  A
N1724      O1728   1.262       .  A
N1724      O1727   1.260       .  A
C1729      C1730   1.429       .  A
C1729      C1734   1.442       .  A
C1729      H1736   1.061       .  S
C1730      C1731   1.425       .  A
C1731      C1732   1.389       .  A
C1731      N1738   1.414       .  S
C1732      C1733   1.399       .  A
C1732      H1737   1.049       .  S
C1733      C1734   1.436       .  A
C1734      N1735   1.430       .  S
N1735      O1739   1.261       .  A
N1735      O1740   1.260       .  A
N1738      O1742   1.253       .  A
N1738      O1741   1.260       .  A
C1743      C1744   1.417       .  A
C1743      C1748   1.411       .  A
C1743      H1750   1.078       .  S
C1744      C1745   1.433       .  A
C1745      C1746   1.408       .  A
C1745      N1752   1.429       .  S
C1746      C1747   1.397       .  A
C1746      H1751   1.085       .  S
C1747      C1748   1.410       .  A
C1748      N1749   1.443       .  S
N1749      O1753   1.263       .  A
N1749      O1754   1.261       .  A
N1752      O1756   1.262       .  A
N1752      O1755   1.263       .  A
C1757      C1758   1.414       .  A
C1757      C1762   1.410       .  A
C1757      H1764   1.082       .  S
C1758      C1759   1.435       .  A
C1759      C1760   1.412       .  A
C1759      N1766   1.422       .  S
C1760      C1761   1.415       .  A
C1760      H1765   1.083       .  S
C1761      C1762   1.442       .  A
C1762      N1763   1.427       .  S
N1763      O1767   1.259       .  A
N1763      O1768   1.260       .  A
N1766      O1770   1.261       .  A
N1766      O1769   1.261       .  A
C1771      C1772   1.414       .  A
C1771      C1776   1.410       .  A
C1771      H1778   1.073       .  S
C1772      C1773   1.435       .  A
C1773      C1774   1.407       .  A
C1773      N1780   1.430       .  S
C1774      C1775   1.395       .  A
C1774      H1779   1.085       .  S
C1775      C1776   1.412       .  A
C1776      N1777   1.443       .  S
N1780      O1784   1.262       .  A
N1780      O1783   1.262       .  A
C1785      C1786   1.408       .  A
C1785      C1790   1.437       .  A
C1785      H1792   1.082       .  S
C1786      C1787   1.401       .  A
C1787      C1788   1.397       .  A
C1787      N1794   1.432       .  S
C1788      C1789   1.416       .  A
C1788      H1793   1.069       .  S
C1789      C1790   1.468       .  A
C1790      N1791   1.438       .  S
N1791      O1795   1.262       .  A
N1791      O1796   1.261       .  A
N1794      O1798   1.259       .  A
N1794      O1797   1.263       .  A
C1799      C1800   1.414       .  A
C1799      C1804   1.439       .  A
C1799      H1806   1.066       .  S
C1800      C1801   1.431       .  A
C1801      C1802   1.433       .  A
C1801      N1808   1.433       .  S
C1802      C1803   1.430       .  A
C1802      H1807   1.074       .  S
C1803      C1804   1.430       .  A
C1804      N1805   1.431       .  S
N1805      O1809   1.262       .  A
N1805      O1810   1.263       .  A
N1808      O1812   1.259       .  A
N1808      O1811   1.261       .  A
C1813      C1814   1.420       .  A
C1813      C1818   1.401       .  A
C1813      H1820   1.079       .  S
C1814      C1815   1.434       .  A
C1815      C1816   1.407       .  A
C1815      N1822   1.430       .  S
C1816      C1817   1.398       .  A
C1816      H1821   1.085       .  S
C1817      C1818   1.400       .  A
C1818      N1819   1.430       .  S
N1822      O1826   1.262       .  A
N1822      O1825   1.262       .  A
C1827      C1828   1.415       .  A
C1827      C1832   1.444       .  A
C1827      H1834   1.080       .  S
C1828      C1829   1.429       .  A
C1829      C1830   1.416       .  A
C1829      N1836   1.435       .  S
C1830      C1831   1.424       .  A
C1830      H1835   1.080       .  S
C1831      C1832   1.433       .  A
C1832      N1833   1.432       .  S
N1833      O1837   1.262       .  A
N1833      O1838   1.263       .  A
N1836      O1840   1.261       .  A
N1836      O1839   1.261       .  A
C1841      C1842   1.406       .  A
C1841      C1846   1.404       .  A
C1841      H1848   1.074       .  S
C1842      C1843   1.434       .  A
C1843      C1844   1.427       .  A
C1843      N1850   1.432       .  S
C1844      C1845   1.418       .  A
C1844      H1849   1.071       .  S
C1845      C1846   1.429       .  A
C1846      N1847   1.427       .  S
N1847      O1851   1.260       .  A
N1847      O1852   1.255       .  A
N1850      O1854   1.261       .  A
N1850      O1853   1.261       .  A
C1855      C1856   1.409       .  A
C1855      C1860   1.396       .  A
C1855      H1862   1.083       .  S
C1856      C1857   1.431       .  A
C1857      C1858   1.408       .  A
C1857      N1864   1.434       .  S
C1858      C1859   1.402       .  A
C1858      H1863   1.084       .  S
C1859      C1860   1.411       .  A
C1860      N1861   1.440       .  S
N1861      O1865   1.261       .  A
N1861      O1866   1.264       .  A
N1864      O1868   1.261       .  A
N1864      O1867   1.262       .  A
C1869      C1870   1.403       .  A
C1869      C1874   1.378       .  A
C1869      H1876   1.057       .  S
C1870      C1871   1.449       .  A
C1871      C1872   1.439       .  A
C1871      N1878   1.429       .  S
C1872      C1873   1.421       .  A
C1872      H1877   1.082       .  S
C1873      C1874   1.393       .  A
C1874      N1875   1.393       .  S
N1875      O1879   1.261       .  A
N1875      O1880   1.254       .  A
N1878      O1882   1.262       .  A
N1878      O1881   1.262       .  A
C1883      C1884   1.388       .  A
C1883      C1888   1.378       .  A
C1883      H1890   1.047       .  S
C1884      C1885   1.434       .  A
C1885      C1886   1.439       .  A
C1885      N1892   1.432       .  S
C1886      C1887   1.436       .  A
C1886      H1891   1.079       .  S
C1887      C1888   1.402       .  A
C1888      N1889   1.412       .  S
N1889      O1893   1.254       .  A
N1889      O1894   1.255       .  A
N1892      O1896   1.262       .  A
N1892      O1895   1.262       .  A
C1897      C2158   1.587       .  S
C1897      C2172   1.552       .  S
C1897      C2186   1.621       .  S
C1897      C2203   1.610       .  S
C1898      C2116   1.626       .  S
C1898      C2130   1.565       .  S
C1898      C2147   1.632       .  S
C1898      C2189   1.605       .  S
C1899      C2074   1.607       .  S
C1899      C2088   1.566       .  S
C1899      C2102   1.600       .  S
C1899      C2200   1.612       .  S
C1900      C2046   1.630       .  S
C1900      C2060   1.573       .  S
C1900      C2105   1.627       .  S
C1900      C2144   1.640       .  S
C1901      C2004   1.556       .  S
C1901      C2021   1.626       .  S
C1901      C2032   1.653       .  S
C1901      C2161   1.600       .  S
C1902      C1979   1.578       .  S
C1902      C1993   1.628       .  S
C1902      C2018   1.593       .  S
C1902      C2119   1.642       .  S
C1903      C1948   1.572       .  S
C1903      C1962   1.642       .  S
C1903      C2035   1.604       .  S
C1903      C2077   1.601       .  S
C1904      C1937   1.557       .  S
C1904      C1965   1.587       .  S
C1904      C1990   1.619       .  S
C1904      C2049   1.625       .  S
O1905      V1913   1.909       .  S
O1905      C1915   1.265       .  A
O1906      C1916   1.266       .  A
O1907      V2229   1.914       .  S
O1907      C1917   1.267       .  A
O1908      C1918   1.265       .  A
O1909      V1914   1.899       .  S
O1909      C1918   1.263       .  A
O1910      C1917   1.264       .  A
O1911      V2230   1.900       .  S
O1911      C1916   1.264       .  A
O1912      C1915   1.268       .  A
V1913      O2223   1.920   1_554  S
V1914      O2227   1.901   1_554  S
C1915      C1976   1.491       .  S
C1916      C2091   1.480       .  S
C1917      C2133   1.483       .  S
C1918      C1951   1.472       .  S
O1919      V2243   1.913   1_565  S
O1919      C1929   1.266       .  A
O1920      C1930   1.266       .  A
O1921      V1927   1.908   1_565  S
O1921      C1931   1.265       .  A
O1922      C1932   1.262       .  A
O1923      C1932   1.267       .  A
O1924      V1928   1.907       .  S
O1924      C1931   1.266       .  A
O1925      C1930   1.264       .  A
O1926      V2244   1.906       .  S
O1926      C1929   1.266       .  A
V1927      O2235   1.919   1_544  S
V1927      V1928   2.085   1_545  T
V1928      O2242   1.904   1_554  S
C1929      C2063   1.491       .  S
C1930      C2007   1.478       .  S
C1931      C1934   1.481       .  S
C1932      C2175   1.482       .  S
C1933      C1934   1.404       .  A
C1933      C1938   1.416       .  A
C1933      H1940   1.084       .  S
C1934      C1935   1.402       .  A
C1935      C1936   1.395       .  A
C1935      N1942   1.433       .  S
C1936      C1937   1.418       .  A
C1936      H1941   1.082       .  S
C1937      C1938   1.430       .  A
C1938      N1939   1.431       .  S
N1939      O1943   1.262       .  A
N1939      O1944   1.261       .  A
N1942      O1946   1.262       .  A
N1942      O1945   1.262       .  A
C1947      C1948   1.417       .  A
C1947      C1952   1.400       .  A
C1947      H1954   1.077       .  S
C1948      C1949   1.443       .  A
C1949      C1950   1.405       .  A
C1949      N1956   1.432       .  S
C1950      C1951   1.390       .  A
C1950      H1955   1.083       .  S
C1951      C1952   1.400       .  A
C1952      N1953   1.433       .  S
N1953      O1957   1.260       .  A
N1953      O1958   1.262       .  A
N1956      O1960   1.262       .  A
N1956      O1959   1.263       .  A
C1961      C1962   1.431       .  A
C1961      C1966   1.438       .  A
C1961      H1968   1.078       .  S
C1962      C1963   1.424       .  A
C1963      C1964   1.380       .  A
C1963      N1970   1.408       .  S
C1964      C1965   1.375       .  A
C1964      H1969   1.068       .  S
C1965      C1966   1.438       .  A
C1966      N1967   1.430       .  S
N1967      O1971   1.262       .  A
N1967      O1972   1.262       .  A
N1970      O1974   1.264       .  A
N1970      O1973   1.245       .  A
C1975      C1976   1.392       .  A
C1975      C1980   1.399       .  A
C1975      H1982   1.084       .  S
C1976      C1977   1.411       .  A
C1977      C1978   1.410       .  A
C1977      N1984   1.428       .  S
C1978      C1979   1.416       .  A
C1978      H1983   1.078       .  S
C1979      C1980   1.438       .  A
C1980      N1981   1.427       .  S
N1981      O1985   1.262       .  A
N1981      O1986   1.262       .  A
N1984      O1988   1.261       .  A
N1984      O1987   1.262       .  A
C1989      C1990   1.415       .  A
C1989      C1994   1.420       .  A
C1989      H1996   1.079       .  S
C1990      C1991   1.433       .  A
C1991      C1992   1.423       .  A
C1991      N1998   1.432       .  S
C1992      C1993   1.415       .  A
C1992      H1997   1.064       .  S
C1993      C1994   1.441       .  A
C1994      N1995   1.439       .  S
N1995      O1999   1.262       .  A
N1995      O2000   1.262       .  A
N1998      O2002   1.263       .  A
N1998      O2001   1.261       .  A
C2003      C2004   1.411       .  A
C2003      C2008   1.399       .  A
C2003      H2010   1.084       .  S
C2004      C2005   1.439       .  A
C2005      C2006   1.404       .  A
C2005      N2012   1.428       .  S
C2006      C2007   1.392       .  A
C2006      H2011   1.085       .  S
C2007      C2008   1.402       .  A
C2008      N2009   1.419       .  S
N2009      O2013   1.262       .  A
N2009      O2014   1.262       .  A
N2012      O2016   1.262       .  A
N2012      O2015   1.261       .  A
C2017      C2018   1.449       .  A
C2017      C2022   1.443       .  A
C2017      H2024   1.074       .  S
C2018      C2019   1.426       .  A
C2019      C2020   1.376       .  A
C2019      N2026   1.461       .  S
C2020      C2021   1.384       .  A
C2020      H2025   1.081       .  S
C2021      C2022   1.430       .  A
C2022      N2023   1.427       .  S
N2023      O2027   1.261       .  A
N2023      O2028   1.262       .  A
N2026      O2030   1.260       .  A
N2026      O2029   1.256       .  A
C2031      C2032   1.401       .  A
C2031      C2036   1.374       .  A
C2031      H2038   1.070       .  S
C2032      C2033   1.459       .  A
C2033      C2034   1.463       .  A
C2033      N2040   1.431       .  S
C2034      C2035   1.431       .  A
C2034      H2039   1.079       .  S
C2035      C2036   1.388       .  A
C2036      N2037   1.430       .  S
N2037      O2041   1.263       .  A
N2037      O2042   1.260       .  A
N2040      O2044   1.262       .  A
N2040      O2043   1.260       .  A
C2045      C2046   1.431       .  A
C2045      C2050   1.443       .  A
C2045      H2052   1.061       .  S
C2046      C2047   1.422       .  A
C2047      C2048   1.390       .  A
C2047      N2054   1.409       .  S
C2048      C2049   1.398       .  A
C2048      H2053   1.047       .  S
C2049      C2050   1.436       .  A
C2050      N2051   1.431       .  S
N2051      O2055   1.261       .  A
N2051      O2056   1.260       .  A
N2054      O2058   1.252       .  A
N2054      O2057   1.261       .  A
C2059      C2060   1.415       .  A
C2059      C2064   1.410       .  A
C2059      H2066   1.078       .  S
C2060      C2061   1.433       .  A
C2061      C2062   1.410       .  A
C2061      N2068   1.430       .  S
C2062      C2063   1.399       .  A
C2062      H2067   1.085       .  S
C2063      C2064   1.412       .  A
C2064      N2065   1.444       .  S
N2065      O2069   1.263       .  A
N2065      O2070   1.261       .  A
N2068      O2072   1.262       .  A
N2068      O2071   1.263       .  A
C2073      C2074   1.415       .  A
C2073      C2078   1.410       .  A
C2073      H2080   1.082       .  S
C2074      C2075   1.435       .  A
C2075      C2076   1.412       .  A
C2075      N2082   1.422       .  S
C2076      C2077   1.415       .  A
C2076      H2081   1.084       .  S
C2077      C2078   1.439       .  A
C2078      N2079   1.426       .  S
N2079      O2083   1.259       .  A
N2079      O2084   1.261       .  A
N2082      O2086   1.261       .  A
N2082      O2085   1.261       .  A
C2087      C2088   1.413       .  A
C2087      C2092   1.407       .  A
C2087      H2094   1.073       .  S
C2088      C2089   1.434       .  A
C2089      C2090   1.406       .  A
C2089      N2096   1.430       .  S
C2090      C2091   1.395       .  A
C2090      H2095   1.085       .  S
C2091      C2092   1.411       .  A
C2092      N2093   1.444       .  S
N2093      O2413   1.263       .  A
N2093      O2414   1.262       .  A
N2096      O2100   1.262       .  A
N2096      O2099   1.262       .  A
O2097      N2409   1.263       .  A
O2098      N2409   1.262   1_554  A
C2101      C2102   1.409       .  A
C2101      C2106   1.438       .  A
C2101      H2108   1.082       .  S
C2102      C2103   1.400       .  A
C2103      C2104   1.394       .  A
C2103      N2110   1.432       .  S
C2104      C2105   1.415       .  A
C2104      H2109   1.068       .  S
C2105      C2106   1.467       .  A
C2106      N2107   1.438       .  S
N2107      O2111   1.262       .  A
N2107      O2112   1.261       .  A
N2110      O2114   1.259       .  A
N2110      O2113   1.263       .  A
C2115      C2116   1.413       .  A
C2115      C2120   1.436       .  A
C2115      H2122   1.066       .  S
C2116      C2117   1.431       .  A
C2117      C2118   1.433       .  A
C2117      N2124   1.433       .  S
C2118      C2119   1.430       .  A
C2118      H2123   1.074       .  S
C2119      C2120   1.429       .  A
C2120      N2121   1.429       .  S
N2121      O2125   1.261       .  A
N2121      O2126   1.263       .  A
N2124      O2128   1.260       .  A
N2124      O2127   1.261       .  A
C2129      C2130   1.419       .  A
C2129      C2134   1.402       .  A
C2129      H2136   1.079       .  S
C2130      C2131   1.434       .  A
C2131      C2132   1.408       .  A
C2131      N2138   1.430       .  S
C2132      C2133   1.399       .  A
C2132      H2137   1.084       .  S
C2133      C2134   1.401       .  A
C2134      N2135   1.429       .  S
N2135      O2455   1.262       .  A
N2135      O2456   1.262       .  A
N2138      O2142   1.262       .  A
N2138      O2141   1.262       .  A
O2139      N2451   1.262       .  A
O2140      N2451   1.262   1_554  A
C2143      C2144   1.417       .  A
C2143      C2148   1.445       .  A
C2143      H2150   1.081       .  S
C2144      C2145   1.429       .  A
C2145      C2146   1.416       .  A
C2145      N2152   1.435       .  S
C2146      C2147   1.423       .  A
C2146      H2151   1.080       .  S
C2147      C2148   1.435       .  A
C2148      N2149   1.432       .  S
N2149      O2153   1.262       .  A
N2149      O2154   1.263       .  A
N2152      O2156   1.261       .  A
N2152      O2155   1.261       .  A
C2157      C2158   1.407       .  A
C2157      C2162   1.405       .  A
C2157      H2164   1.075       .  S
C2158      C2159   1.434       .  A
C2159      C2160   1.427       .  A
C2159      N2166   1.432       .  S
C2160      C2161   1.418       .  A
C2160      H2165   1.071       .  S
C2161      C2162   1.430       .  A
C2162      N2163   1.427       .  S
N2163      O2167   1.260       .  A
N2163      O2168   1.256       .  A
N2166      O2170   1.261       .  A
N2166      O2169   1.261       .  A
C2171      C2172   1.409       .  A
C2171      C2176   1.396       .  A
C2171      H2178   1.083       .  S
C2172      C2173   1.430       .  A
C2173      C2174   1.410       .  A
C2173      N2180   1.434       .  S
C2174      C2175   1.403       .  A
C2174      H2179   1.084       .  S
C2175      C2176   1.412       .  A
C2176      N2177   1.439       .  S
N2177      O2181   1.261       .  A
N2177      O2182   1.264       .  A
N2180      O2184   1.261       .  A
N2180      O2183   1.262       .  A
C2185      C2186   1.403       .  A
C2185      C2190   1.378       .  A
C2185      H2192   1.057       .  S
C2186      C2187   1.449       .  A
C2187      C2188   1.441       .  A
C2187      N2194   1.429       .  S
C2188      C2189   1.421       .  A
C2188      H2193   1.082       .  S
C2189      C2190   1.393       .  A
C2190      N2191   1.394       .  S
N2191      O2195   1.260       .  A
N2191      O2196   1.253       .  A
N2194      O2198   1.262       .  A
N2194      O2197   1.261       .  A
C2199      C2200   1.387       .  A
C2199      C2204   1.376       .  A
C2199      H2206   1.049       .  S
C2200      C2201   1.435       .  A
C2201      C2202   1.438       .  A
C2201      N2208   1.432       .  S
C2202      C2203   1.435       .  A
C2202      H2207   1.079       .  S
C2203      C2204   1.403       .  A
C2204      N2205   1.411       .  S
N2205      O2209   1.255       .  A
N2205      O2210   1.255       .  A
N2208      O2212   1.262       .  A
N2208      O2211   1.262       .  A
C2213      C2474   1.590       .  S
C2213      C2488   1.554       .  S
C2213      C2502   1.615       .  S
C2213      C2519   1.621       .  S
C2214      C2432   1.625       .  S
C2214      C2446   1.570       .  S
C2214      C2463   1.624       .  S
C2214      C2505   1.599       .  S
C2215      C2390   1.602       .  S
C2215      C2404   1.573       .  S
C2215      C2418   1.617       .  S
C2215      C2516   1.612       .  S
C2216      C2362   1.627       .  S
C2216      C2376   1.582       .  S
C2216      C2421   1.637       .  S
C2216      C2460   1.627       .  S
C2217      C2320   1.552       .  S
C2217      C2337   1.645       .  S
C2217      C2348   1.635       .  S
C2217      C2477   1.594       .  S
C2218      C2295   1.578       .  S
C2218      C2309   1.637       .  S
C2218      C2334   1.601       .  S
C2218      C2435   1.644       .  S
C2219      C2264   1.568       .  S
C2219      C2278   1.622       .  S
C2219      C2351   1.600       .  S
C2219      C2393   1.578       .  S
C2220      C2253   1.558       .  S
C2220      C2281   1.590       .  S
C2220      C2306   1.620       .  S
C2220      C2365   1.618       .  S
O2221      V2229   1.909       .  S
O2221      C2231   1.265       .  A
O2222      C2232   1.267       .  A
O2223      C2233   1.269       .  A
O2224      C2234   1.265       .  A
O2225      V2230   1.897       .  S
O2225      C2234   1.262       .  A
O2226      C2233   1.264       .  A
O2227      C2232   1.264       .  A
O2228      C2231   1.267       .  A
C2231      C2292   1.490       .  S
C2232      C2407   1.480       .  S
C2233      C2449   1.488       .  S
C2234      C2267   1.471       .  S
O2235      C2245   1.268       .  A
O2236      C2246   1.267       .  A
O2237      V2243   1.911   1_565  S
O2237      C2247   1.265       .  A
O2238      C2248   1.263       .  A
O2239      C2248   1.266       .  A
O2240      V2244   1.906       .  S
O2240      C2247   1.265       .  A
O2241      C2246   1.265       .  A
O2242      C2245   1.266       .  A
V2243      V2244   2.085   1_545  T
C2245      C2379   1.494       .  S
C2246      C2323   1.481       .  S
C2247      C2250   1.482       .  S
C2248      C2491   1.481       .  S
C2249      C2250   1.405       .  A
C2249      C2254   1.417       .  A
C2249      H2256   1.084       .  S
C2250      C2251   1.401       .  A
C2251      C2252   1.395       .  A
C2251      N2258   1.434       .  S
C2252      C2253   1.418       .  A
C2252      H2257   1.080       .  S
C2253      C2254   1.431       .  A
C2254      N2255   1.433       .  S
N2255      O2259   1.262       .  A
N2255      O2260   1.261       .  A
N2258      O2262   1.262       .  A
N2258      O2261   1.262       .  A
C2263      C2264   1.415       .  A
C2263      C2268   1.398       .  A
C2263      H2270   1.076       .  S
C2264      C2265   1.443       .  A
C2265      C2266   1.404       .  A
C2265      N2272   1.433       .  S
C2266      C2267   1.392       .  A
C2266      H2271   1.084       .  S
C2267      C2268   1.400       .  A
C2268      N2269   1.431       .  S
N2269      O2273   1.259       .  A
N2269      O2274   1.262       .  A
N2272      O2276   1.262       .  A
N2272      O2275   1.263       .  A
C2277      C2278   1.423       .  A
C2277      C2282   1.434       .  A
C2277      H2284   1.079       .  S
C2278      C2279   1.423       .  A
C2279      C2280   1.379       .  A
C2279      N2286   1.416       .  S
C2280      C2281   1.384       .  A
C2280      H2285   1.071       .  S
C2281      C2282   1.443       .  A
C2282      N2283   1.429       .  S
N2283      O2287   1.262       .  A
N2283      O2288   1.262       .  A
N2286      O2290   1.260       .  A
N2286      O2289   1.252       .  A
C2291      C2292   1.393       .  A
C2291      C2296   1.399       .  A
C2291      H2298   1.084       .  S
C2292      C2293   1.411       .  A
C2293      C2294   1.410       .  A
C2293      N2300   1.429       .  S
C2294      C2295   1.414       .  A
C2294      H2299   1.077       .  S
C2295      C2296   1.439       .  A
C2296      N2297   1.427       .  S
N2297      O2301   1.263       .  A
N2297      O2302   1.262       .  A
N2300      O2304   1.261       .  A
N2300      O2303   1.262       .  A
C2305      C2306   1.414       .  A
C2305      C2310   1.428       .  A
C2305      H2312   1.074       .  S
C2306      C2307   1.433       .  A
C2307      C2308   1.423       .  A
C2307      N2314   1.430       .  S
C2308      C2309   1.416       .  A
C2308      H2313   1.064       .  S
C2309      C2310   1.445       .  A
C2310      N2311   1.443       .  S
N2311      O2315   1.262       .  A
N2311      O2316   1.263       .  A
N2314      O2318   1.262       .  A
N2314      O2317   1.262       .  A
C2319      C2320   1.407       .  A
C2319      C2324   1.399       .  A
C2319      H2326   1.082       .  S
C2320      C2321   1.434       .  A
C2321      C2322   1.406       .  A
C2321      N2328   1.428       .  S
C2322      C2323   1.395       .  A
C2322      H2327   1.084       .  S
C2323      C2324   1.403       .  A
C2324      N2325   1.420       .  S
N2325      O2329   1.262       .  A
N2325      O2330   1.262       .  A
N2328      O2332   1.262       .  A
N2328      O2331   1.261       .  A
C2333      C2334   1.454       .  A
C2333      C2338   1.457       .  A
C2333      H2340   1.073       .  S
C2334      C2335   1.413       .  A
C2335      C2336   1.378       .  A
C2335      N2342   1.447       .  S
C2336      C2337   1.384       .  A
C2336      H2341   1.077       .  S
C2337      C2338   1.439       .  A
C2338      N2339   1.428       .  S
N2339      O2343   1.261       .  A
N2339      O2344   1.262       .  A
N2342      O2346   1.247       .  A
N2342      O2345   1.256       .  A
C2347      C2348   1.382       .  A
C2347      C2352   1.370       .  A
C2347      H2354   1.054       .  S
C2348      C2349   1.464       .  A
C2349      C2350   1.470       .  A
C2349      N2356   1.430       .  S
C2350      C2351   1.443       .  A
C2350      H2355   1.078       .  S
C2351      C2352   1.385       .  A
C2352      N2353   1.438       .  S
N2353      O2357   1.263       .  A
N2353      O2358   1.259       .  A
N2356      O2360   1.262       .  A
N2356      O2359   1.260       .  A
C2361      C2362   1.425       .  A
C2361      C2366   1.435       .  A
C2361      H2368   1.062       .  S
C2362      C2363   1.432       .  A
C2363      C2364   1.390       .  A
C2363      N2370   1.421       .  S
C2364      C2365   1.403       .  A
C2364      H2369   1.055       .  S
C2365      C2366   1.438       .  A
C2366      N2367   1.430       .  S
N2367      O2371   1.260       .  A
N2367      O2372   1.261       .  A
N2370      O2374   1.255       .  A
N2370      O2373   1.260       .  A
C2375      C2376   1.419       .  A
C2375      C2380   1.415       .  A
C2375      H2382   1.078       .  S
C2376      C2377   1.435       .  A
C2377      C2378   1.409       .  A
C2377      N2384   1.428       .  S
C2378      C2379   1.395       .  A
C2378      H2383   1.085       .  S
C2379      C2380   1.411       .  A
C2380      N2381   1.443       .  S
N2381      O2385   1.263       .  A
N2381      O2386   1.261       .  A
N2384      O2388   1.262       .  A
N2384      O2387   1.264       .  A
C2389      C2390   1.424       .  A
C2389      C2394   1.412       .  A
C2389      H2396   1.083       .  S
C2390      C2391   1.429       .  A
C2391      C2392   1.406       .  A
C2391      N2398   1.431       .  S
C2392      C2393   1.415       .  A
C2392      H2397   1.083       .  S
C2393      C2394   1.426       .  A
C2394      N2395   1.431       .  S
N2395      O2399   1.260       .  A
N2395      O2400   1.261       .  A
N2398      O2402   1.262       .  A
N2398      O2401   1.259       .  A
C2403      C2404   1.413       .  A
C2403      C2408   1.410       .  A
C2403      H2410   1.071       .  S
C2404      C2405   1.443       .  A
C2405      C2406   1.405       .  A
C2405      N2412   1.433       .  S
C2406      C2407   1.390       .  A
C2406      H2411   1.085       .  S
C2407      C2408   1.411       .  A
C2408      N2409   1.442       .  S
N2412      O2416   1.261       .  A
N2412      O2415   1.263       .  A
C2417      C2418   1.412       .  A
C2417      C2422   1.442       .  A
C2417      H2424   1.081       .  S
C2418      C2419   1.410       .  A
C2419      C2420   1.404       .  A
C2419      N2426   1.432       .  S
C2420      C2421   1.416       .  A
C2420      H2425   1.071       .  S
C2421      C2422   1.466       .  A
C2422      N2423   1.438       .  S
N2423      O2427   1.263       .  A
N2423      O2428   1.261       .  A
N2426      O2430   1.258       .  A
N2426      O2429   1.263       .  A
C2431      C2432   1.416       .  A
C2431      C2436   1.439       .  A
C2431      H2438   1.064       .  S
C2432      C2433   1.430       .  A
C2433      C2434   1.432       .  A
C2433      N2440   1.434       .  S
C2434      C2435   1.428       .  A
C2434      H2439   1.076       .  S
C2435      C2436   1.431       .  A
C2436      N2437   1.433       .  S
N2437      O2441   1.262       .  A
N2437      O2442   1.263       .  A
N2440      O2444   1.259       .  A
N2440      O2443   1.261       .  A
C2445      C2446   1.421       .  A
C2445      C2450   1.405       .  A
C2445      H2452   1.080       .  S
C2446      C2447   1.434       .  A
C2447      C2448   1.410       .  A
C2447      N2454   1.431       .  S
C2448      C2449   1.400       .  A
C2448      H2453   1.084       .  S
C2449      C2450   1.402       .  A
C2450      N2451   1.429       .  S
N2454      O2458   1.261       .  A
N2454      O2457   1.261       .  A
C2459      C2460   1.413       .  A
C2459      C2464   1.440       .  A
C2459      H2466   1.081       .  S
C2460      C2461   1.426       .  A
C2461      C2462   1.414       .  A
C2461      N2468   1.436       .  S
C2462      C2463   1.424       .  A
C2462      H2467   1.081       .  S
C2463      C2464   1.431       .  A
C2464      N2465   1.433       .  S
N2465      O2469   1.262       .  A
N2465      O2470   1.263       .  A
N2468      O2472   1.261       .  A
N2468      O2471   1.261       .  A
C2473      C2474   1.410       .  A
C2473      C2478   1.405       .  A
C2473      H2480   1.074       .  S
C2474      C2475   1.430       .  A
C2475      C2476   1.426       .  A
C2475      N2482   1.432       .  S
C2476      C2477   1.420       .  A
C2476      H2481   1.072       .  S
C2477      C2478   1.422       .  A
C2478      N2479   1.418       .  S
N2479      O2483   1.261       .  A
N2479      O2484   1.254       .  A
N2482      O2486   1.261       .  A
N2482      O2485   1.261       .  A
C2487      C2488   1.408       .  A
C2487      C2492   1.397       .  A
C2487      H2494   1.083       .  S
C2488      C2489   1.432       .  A
C2489      C2490   1.410       .  A
C2489      N2496   1.434       .  S
C2490      C2491   1.402       .  A
C2490      H2495   1.084       .  S
C2491      C2492   1.411       .  A
C2492      N2493   1.438       .  S
N2493      O2497   1.261       .  A
N2493      O2498   1.264       .  A
N2496      O2500   1.261       .  A
N2496      O2499   1.262       .  A
C2501      C2502   1.402       .  A
C2501      C2506   1.377       .  A
C2501      H2508   1.058       .  S
C2502      C2503   1.449       .  A
C2503      C2504   1.435       .  A
C2503      N2510   1.430       .  S
C2504      C2505   1.420       .  A
C2504      H2509   1.081       .  S
C2505      C2506   1.394       .  A
C2506      N2507   1.398       .  S
N2507      O2511   1.261       .  A
N2507      O2512   1.255       .  A
N2510      O2514   1.262       .  A
N2510      O2513   1.261       .  A
C2515      C2516   1.387       .  A
C2515      C2520   1.377       .  A
C2515      H2522   1.056       .  S
C2516      C2517   1.431       .  A
C2517      C2518   1.441       .  A
C2517      N2524   1.431       .  S
C2518      C2519   1.439       .  A
C2518      H2523   1.077       .  S
C2519      C2520   1.406       .  A
C2520      N2521   1.406       .  S
N2521      O2525   1.259       .  A
N2521      O2526   1.257       .  A
N2524      O2528   1.262       .  A
N2524      O2527   1.262       .  A
