geometry optimzed in LAMMPS
_audit_creation_date              2020-11-30 
_audit_creation_method            'lammps2cif' 
_symmetry_space_group_name_H-M    'P1' 
_symmetry_Int_Tables_number       1 
_symmetry_cell_setting            triclinic 
loop_ 
_symmetry_equiv_pos_as_xyz 
  x,y,z 
_cell_length_a                    75.81408953 
_cell_length_b                    75.78427746244745 
_cell_length_c                    34.266826696025774 
_cell_angle_alpha                 89.9430604792363 
_cell_angle_beta                  90.02361662547207 
_cell_angle_gamma                 120.17780458715798 
loop_ 
_atom_site_label 
_atom_site_type_symbol 
_atom_site_fract_x 
_atom_site_fract_y 
_atom_site_fract_z 
_atom_site_charge 
In1        In  0.08158844  0.46477450  0.22492797     1.36900
C2          C  0.04111763  0.44597658  0.23189600     0.76900
O3          O  0.07888537  0.45058517  0.28332275    -0.61500
O4          O  0.10832425  0.46770297  0.25905928    -0.52400
C5          C  0.09545365  0.45214425  0.16653704     0.69600
O6          O  0.08341577  0.44011819  0.19204528    -0.47300
C7          C  0.09135971  0.50359969  0.21754522     0.74300
O8          O  0.04968395  0.44192692  0.20458082    -0.59200
O9          O  0.09743404  0.49726117  0.24563521    -0.49200
O10         O  0.05333260  0.45964380  0.25482739    -0.55600
C11         C  0.09766010  0.45706580  0.28731442     0.84500
O12         O  0.09983966  0.47044030  0.17044914    -0.57500
O13         O  0.08072643  0.49010048  0.19277869    -0.60800
In14       In  0.91446901  0.38383016  0.27999118     1.36900
C15         C  0.95434136  0.40341009  0.26406515     0.76900
O16         O  0.90246495  0.35354566  0.25025767    -0.61500
O17         O  0.90142629  0.37714673  0.21913142    -0.52400
C18         C  0.90063614  0.35851939  0.34101880     0.69600
O19         O  0.91815459  0.36526189  0.32650289    -0.47300
C20         C  0.90710889  0.41415634  0.29581988     0.74300
O21         O  0.94712706  0.39622798  0.29720529    -0.59200
O22         O  0.89528523  0.39887105  0.27545224    -0.49200
O23         O  0.94103574  0.39999326  0.23853128    -0.55600
C24         C  0.89755059  0.35890592  0.21924173     0.84500
O25         O  0.89015079  0.36495663  0.32416658    -0.57500
O26         O  0.92221884  0.41344586  0.30902515    -0.60800
In27       In  0.05233327  0.25084325  0.38530152     1.36900
C28         C  0.07654867  0.28994631  0.40390669     0.76900
O29         O  0.03166355  0.25335305  0.42871512    -0.61500
O30         O  0.03856009  0.22969982  0.43633347    -0.52400
C31         C  0.02375576  0.23634392  0.32936736     0.69600
O32         O  0.03588802  0.25510066  0.33471768    -0.47300
C33         C  0.08095968  0.24155506  0.36669585     0.74300
O34         O  0.06514587  0.28432709  0.37425058    -0.59200
O35         O  0.06976827  0.23459763  0.39640342    -0.49200
O36         O  0.07551668  0.27549438  0.42387809    -0.55600
C37         C  0.02957850  0.23866193  0.44936778     0.84500
O38         O  0.02665293  0.22491227  0.35198802    -0.57500
O39         O  0.07684147  0.25259070  0.34541364    -0.60800
In40       In  0.13701363  0.41300175  0.47399563     1.36900
C41         C  0.12035261  0.37408716  0.45362195     0.76900
O42         O  0.11316353  0.41330275  0.43642506    -0.61500
O43         O  0.14363517  0.43733165  0.42925373    -0.52400
C44         C  0.12544413  0.42679324  0.03586787     0.69600
O45         O  0.11941838  0.40826898  0.02912949    -0.47300
C46         C  0.17485241  0.41954394  0.47923275     0.74300
O47         O  0.11903842  0.37957326  0.48773059    -0.59200
O48         O  0.16939439  0.42798393  0.45414694    -0.49200
O49         O  0.12998827  0.38861648  0.43004824    -0.55600
C50         C  0.12527136  0.42951150  0.41872213     0.84500
O51         O  0.14315553  0.43666740  0.51969003    -0.57500
O52         O  0.16379285  0.41684036  0.00739242    -0.60800
In53       In  0.94484904  0.19839425  0.13411144     1.36900
C54         C  0.92695477  0.21876505  0.10831973     0.76900
O55         O  0.97108272  0.22333667  0.10137287    -0.61500
O56         O  0.96179180  0.19266469  0.08710590    -0.52400
C57         C  0.96681888  0.20728833  0.19996908     0.69600
O58         O  0.95440695  0.21334397  0.19314837    -0.47300
C59         C  0.91367746  0.15991037  0.13905199     0.74300
O60         O  0.93367571  0.22047980  0.14259463    -0.59200
O61         O  0.92825224  0.16546568  0.11555052    -0.49200
O62         O  0.92869894  0.20599366  0.08765235    -0.55600
C63         C  0.97367225  0.21131569  0.07989477     0.84500
O64         O  0.96771335  0.19632473  0.17332160    -0.57500
O65         O  0.91553335  0.17392953  0.16140512    -0.60800
In66       In  0.86453586  0.27851601  0.02924140     1.36900
C67         C  0.88611579  0.26179097  0.05541983     0.76900
O68         O  0.88430581  0.30871142  0.05856627    -0.61500
O69         O  0.85609353  0.28794449  0.08501995    -0.52400
C70         C  0.87472116  0.30160010  0.47078273     0.69600
O71         O  0.88080676  0.28909680  0.47668409    -0.47300
C72         C  0.82730905  0.24644049  0.01837889     0.74300
O73         O  0.88694257  0.26742696  0.02045782    -0.59200
O74         O  0.83048582  0.26285845  0.03367885    -0.49200
O75         O  0.87422446  0.26474415  0.07637108    -0.55600
C76         C  0.87212835  0.30516067  0.08645396     0.84500
O77         O  0.85914554  0.29773241  0.98575608    -0.57500
O78         O  0.84318882  0.24696722  0.00585384    -0.60800
In79       In  0.86340085  0.58399394  0.03777900     1.36900
C80         C  0.88116304  0.62188965  0.06521598     0.76900
O81         O  0.84173490  0.59139775  0.00750072    -0.61500
O82         O  0.82911146  0.56430091  0.04059174    -0.52400
C83         C  0.87181172  0.57080600  0.47494821     0.69600
O84         O  0.87822412  0.58944395  0.48123097    -0.47300
C85         C  0.87316845  0.56963774  0.09976719     0.74300
O86         O  0.88793809  0.61696215  0.03606400    -0.59200
O87         O  0.85491534  0.56264511  0.08906443    -0.49200
O88         O  0.86499315  0.60743956  0.07935321    -0.55600
C89         C  0.82575117  0.57606299  0.01986831     0.84500
O90         O  0.86519160  0.56003754  0.00236718    -0.57500
O91         O  0.88624989  0.58307562  0.07749313    -0.60800
In92       In  0.94245661  0.74231040  0.15225244     1.36900
C93         C  0.92337807  0.70437713  0.12517554     0.76900
O94         O  0.91314493  0.73572926  0.18137512    -0.61500
O95         O  0.92468100  0.75754917  0.13587211    -0.52400
C96         C  0.96582571  0.75447539  0.21621049     0.69600
O97         O  0.95868263  0.73702334  0.20144184    -0.47300
C98         C  0.97126267  0.76035542  0.09828635     0.74300
O99         O  0.92748931  0.70840290  0.16088968    -0.59200
O100        O  0.95920095  0.76664788  0.10698888    -0.49200
O101        O  0.92836719  0.71972478  0.10388405    -0.55600
C102        C  0.91058661  0.74789166  0.16022391     0.84500
O103        O  0.96032525  0.76558432  0.19879379    -0.57500
O104        O  0.96874669  0.74524021  0.11807903    -0.60800
In105      In  0.13651922  0.71724741  0.46470772     1.36900
C106        C  0.11558469  0.73643264  0.45438977     0.76900
O107        O  0.16204302  0.74221943  0.49932519    -0.61500
O108        O  0.16851715  0.73592678  0.44267773    -0.52400
C109        C  0.12239134  0.68895022  0.02767776     0.69600
O110        O  0.12185862  0.70525109  0.03039631    -0.47300
C111        C  0.12400598  0.69365723  0.40161220     0.74300
O112        O  0.10938293  0.72096276  0.47597564    -0.59200
O113        O  0.14255186  0.70365286  0.41160412    -0.49200
O114        O  0.13283240  0.74243420  0.43928682    -0.55600
C115        C  0.17512977  0.74696459  0.47271664     0.84500
O116        O  0.13426388  0.68890310  0.49034028    -0.57500
O117        O  0.11207885  0.69561950  0.42441957    -0.60800
In118      In  0.05083530  0.79703434  0.40191270     1.36900
C119        C  0.07130710  0.77818815  0.41985961     0.76900
O120        O  0.07653404  0.81859712  0.36304448    -0.61500
O121        O  0.07016515  0.83064012  0.41331323    -0.52400
C122        C  0.02516338  0.78605275  0.34161391     0.69600
O123        O  0.03798473  0.78028273  0.34577413    -0.47300
C124        C  0.02817874  0.78831035  0.46612388     0.74300
O125        O  0.05462477  0.76952423  0.40156335    -0.59200
O126        O  0.03763877  0.80609027  0.45200475    -0.49200
O127        O  0.07728881  0.79636802  0.42961521    -0.55600
C128        C  0.08144404  0.83410711  0.38389034     0.84500
O129        O  0.02571595  0.79785126  0.36805521    -0.57500
O130        O  0.02996699  0.77522512  0.44673333    -0.60800
In131      In  0.91425106  0.52847499  0.28844808     1.36900
C132        C  0.95389735  0.54633097  0.27150209     0.76900
O133        O  0.91481357  0.50329485  0.32248008    -0.61500
O134        O  0.90152313  0.49644189  0.26643091    -0.52400
C135        C  0.89942036  0.53948823  0.34853098     0.69600
O136        O  0.91784689  0.54916922  0.33807493    -0.47300
C137        C  0.89852586  0.54050324  0.23216532     0.74300
O138        O  0.94735533  0.54449900  0.30593239    -0.59200
O139        O  0.89211172  0.52192181  0.23946119    -0.49200
O140        O  0.94014440  0.53914732  0.24586916    -0.55600
C141        C  0.90652931  0.49008926  0.29598775     0.84500
O142        O  0.88853971  0.52364797  0.32866746    -0.57500
O143        O  0.91303273  0.55274192  0.25372871    -0.60800
In144      In  0.07993432  0.60804602  0.21769001     1.36900
C145        C  0.03988064  0.58875832  0.23198283     0.76900
O146        O  0.08360422  0.58374202  0.18687538    -0.61500
O147        O  0.09053181  0.58855201  0.24670822    -0.52400
C148        C  0.09543471  0.63129331  0.15465306     0.69600
O149        O  0.07752804  0.61623937  0.15554192    -0.47300
C150        C  0.09522185  0.63668458  0.27248548     0.74300
O151        O  0.04762212  0.59833774  0.20079051    -0.59200
O152        O  0.10358980  0.62669709  0.26202109    -0.49200
O153        O  0.05274086  0.58880335  0.25532179    -0.55600
C154        C  0.08927171  0.57836390  0.21693331     0.84500
O155        O  0.10548444  0.63404373  0.18555108    -0.57500
O156        O  0.07886308  0.63194086  0.25459219    -0.60800
In157      In  0.60895651  0.52623559  0.28257488     1.36900
C158        C  0.58903614  0.54553390  0.26275558     0.76900
O159        O  0.63644097  0.54997786  0.25023517    -0.61500
O160        O  0.62074142  0.51998721  0.22722822    -0.52400
C161        C  0.63385827  0.53647524  0.34393898     0.69600
O162        O  0.62513313  0.54614277  0.33369403    -0.47300
C163        C  0.57836404  0.48805200  0.29502488     0.74300
O164        O  0.59424090  0.54476644  0.29737521    -0.59200
O165        O  0.59298220  0.49222315  0.27217153    -0.49200
O166        O  0.59370614  0.53610413  0.23842725    -0.55600
C167        C  0.63505505  0.53817694  0.22300206     0.84500
O168        O  0.62961512  0.52119951  0.32295734    -0.57500
O169        O  0.57964518  0.50341387  0.31182772    -0.60800
In170      In  0.52969497  0.60958624  0.19360228     1.36900
C171        C  0.55103279  0.59197629  0.21544535     0.76900
O172        O  0.54731535  0.64121555  0.21922777    -0.61500
O173        O  0.52253693  0.61849361  0.25152153    -0.52400
C174        C  0.54016130  0.63153871  0.12830406     0.69600
O175        O  0.55223387  0.62795865  0.14735271    -0.47300
C176        C  0.49227053  0.57788600  0.18224606     0.74300
O177        O  0.54995840  0.59662031  0.18057572    -0.59200
O178        O  0.49547913  0.59435037  0.19765338    -0.49200
O179        O  0.54126424  0.59655489  0.23914750    -0.55600
C180        C  0.53677294  0.63681296  0.24988100     0.84500
O181        O  0.52245315  0.62358940  0.14265182    -0.57500
O182        O  0.50820570  0.57800064  0.17155543    -0.60800
In183      In  0.71633625  0.57803811  0.03089899     1.36900
C184        C  0.73676768  0.61726223  0.05129051     0.76900
O185        O  0.69398770  0.57962930  0.07124047    -0.61500
O186        O  0.69855688  0.55442501  0.07722861    -0.52400
C187        C  0.69115535  0.56612282  0.47264915     0.69600
O188        O  0.70496823  0.58440818  0.47680528    -0.47300
C189        C  0.74725854  0.57108054  0.01838526     0.74300
O190        O  0.72743059  0.61119424  0.01925176    -0.59200
O191        O  0.73603467  0.56482752  0.04816979    -0.49200
O192        O  0.73629277  0.60329750  0.07208417    -0.55600
C193        C  0.68938017  0.56339611  0.08933028     0.84500
O194        O  0.69166641  0.55246813  0.99521047    -0.57500
O195        O  0.74203011  0.58009300  0.99409983    -0.60800
In196      In  0.79835885  0.74137928  0.11857775     1.36900
C197        C  0.77863262  0.70248191  0.09594353     0.76900
O198        O  0.77764927  0.74798278  0.08322810    -0.61500
O199        O  0.80789356  0.75962160  0.06256398    -0.52400
C200        C  0.78686238  0.75730634  0.17553397     0.69600
O201        O  0.77791862  0.73847851  0.16812114    -0.47300
C202        C  0.83406274  0.74611988  0.14235011     0.74300
O203        O  0.77427064  0.70850111  0.12682006    -0.59200
O204        O  0.83268021  0.75729108  0.11663418    -0.49200
O205        O  0.79329078  0.71637801  0.07702786    -0.55600
C206        C  0.79079547  0.75837558  0.05776339     0.84500
O207        O  0.80245736  0.76801841  0.15488259    -0.57500
O208        O  0.81720994  0.73332707  0.15711730    -0.60800
In209      In  0.74646801  0.79860671  0.36641632     1.36900
C210        C  0.70659661  0.77652303  0.38232367     0.76900
O211        O  0.75868581  0.78059089  0.39613456    -0.61500
O212        O  0.76025162  0.80570745  0.42659756    -0.52400
C213        C  0.75997923  0.78809411  0.30337145     0.69600
O214        O  0.74271947  0.77680887  0.31846595    -0.47300
C215        C  0.75363371  0.83682718  0.35983944     0.74300
O216        O  0.71344273  0.78327403  0.34873822    -0.59200
O217        O  0.76655762  0.83268016  0.37349922    -0.49200
O218        O  0.72024145  0.78109355  0.40773651    -0.55600
C219        C  0.76399108  0.79125453  0.42674257     0.84500
O220        O  0.77008481  0.80516513  0.31989323    -0.57500
O221        O  0.73756815  0.82151830  0.34766623    -0.60800
In222      In  0.58099587  0.71812959  0.43983612     1.36900
C223        C  0.62067692  0.73604605  0.42218415     0.76900
O224        O  0.56685481  0.68692568  0.41281757    -0.61500
O225        O  0.56816563  0.71079824  0.37876065    -0.52400
C226        C  0.56794109  0.69011149  0.00152645     0.69600
O227        O  0.58534895  0.69645130  0.98681234    -0.47300
C228        C  0.57431851  0.74904107  0.45321011     0.74300
O229        O  0.61362954  0.72875851  0.45533973    -0.59200
O230        O  0.56200108  0.73330672  0.43454349    -0.49200
O231        O  0.60729177  0.73368973  0.39761527    -0.55600
C232        C  0.56278495  0.69215416  0.38072220     0.84500
O233        O  0.55708463  0.69982043  0.48500452    -0.57500
O234        O  0.59081845  0.74643239  0.96532461    -0.60800
In235      In  0.46532960  0.37872782  0.29098511     1.36900
C236        C  0.44572974  0.39822618  0.26968742     0.76900
O237        O  0.48813075  0.40889512  0.31768130    -0.61500
O238        O  0.49894828  0.39485751  0.27877559    -0.52400
C239        C  0.45399909  0.35356278  0.35220761     0.69600
O240        O  0.44405520  0.36158365  0.33973165    -0.47300
C241        C  0.45494125  0.35207827  0.23300066     0.74300
O242        O  0.44670690  0.39345773  0.30456135    -0.59200
O243        O  0.47269047  0.36718203  0.23668758    -0.49200
O244        O  0.45508558  0.39320670  0.24592741    -0.55600
C245        C  0.50311102  0.41036651  0.29890200     0.84500
O246        O  0.47079315  0.35959417  0.33500151    -0.57500
O247        O  0.44273399  0.35029728  0.25969412    -0.60800
In248      In  0.38635278  0.46372194  0.20910044     1.36900
C249        C  0.40487312  0.44306040  0.22906645     0.76900
O250        O  0.41540263  0.48553509  0.17810213    -0.61500
O251        O  0.40186581  0.49763116  0.21524808    -0.52400
C252        C  0.36081517  0.45311871  0.14923498     0.69600
O253        O  0.36798355  0.44233248  0.16159054    -0.47300
C254        C  0.36071770  0.45483471  0.26853921     0.74300
O255        O  0.39726515  0.44176199  0.19572764    -0.59200
O256        O  0.37851568  0.47007327  0.26879133    -0.49200
O257        O  0.40342915  0.45537841  0.25156533    -0.55600
C258        C  0.41674385  0.50123708  0.19366193     0.84500
O259        O  0.36759708  0.47002189  0.16649411    -0.57500
O260        O  0.35615604  0.44421591  0.23802867    -0.60800
In261      In  0.19310699  0.24446060  0.37176206     1.36900
C262        C  0.21182996  0.28395845  0.38963149     0.76900
O263        O  0.17061763  0.24914779  0.33706551    -0.61500
O264        O  0.16057855  0.23261170  0.39002960    -0.52400
C265        C  0.20219925  0.22905378  0.30982064     0.69600
O266        O  0.21367177  0.24682917  0.32268221    -0.47300
C267        C  0.20414603  0.22893607  0.43063484     0.74300
O268        O  0.21493058  0.27747217  0.35793395    -0.59200
O269        O  0.18626292  0.22003495  0.41701469    -0.49200
O270        O  0.19908060  0.27017252  0.41187276    -0.55600
C271        C  0.15632877  0.24030620  0.36141568     0.84500
O272        O  0.18574869  0.21923243  0.32851093    -0.57500
O273        O  0.21633281  0.24514676  0.41309386    -0.60800
In274      In  0.27898869  0.40821580  0.45702884     1.36900
C275        C  0.25784948  0.36877746  0.43737065     0.76900
O276        O  0.25004630  0.40134692  0.48771990    -0.61500
O277        O  0.26369067  0.42675564  0.44950321    -0.52400
C278        C  0.30533475  0.42803453  0.01805654     0.69600
O279        O  0.30001198  0.41112534  0.00200610    -0.47300
C280        C  0.30561294  0.42629787  0.39928487     0.74300
O281        O  0.26461147  0.37482695  0.47126239    -0.59200
O282        O  0.28869525  0.42570473  0.40050933    -0.49200
O283        O  0.26250504  0.38305340  0.41335341    -0.55600
C284        C  0.24907816  0.41592749  0.47222670     0.84500
O285        O  0.29512597  0.43152397  0.50400086    -0.57500
O286        O  0.30875328  0.41753172  0.42741156    -0.60800
In287      In  0.40791528  0.27173119  0.04290097     1.36900
C288        C  0.36777452  0.25323757  0.05765902     0.76900
O289        O  0.40313235  0.24248869  0.01735152    -0.61500
O290        O  0.42583987  0.25683079  0.06077621    -0.52400
C291        C  0.42406068  0.29541365  0.48005976     0.69600
O292        O  0.40658182  0.28944497  0.49411935    -0.47300
C293        C  0.42522776  0.29624568  0.10325690     0.74300
O294        O  0.37485327  0.25075218  0.02623996    -0.59200
O295        O  0.41951935  0.27747769  0.10432687    -0.49200
O296        O  0.38121524  0.26542790  0.08080051    -0.55600
C297        C  0.41631914  0.24172025  0.03851384     0.84500
O298        O  0.43188942  0.28808862  0.99679439    -0.57500
O299        O  0.42266360  0.30253888  0.07081953    -0.60800
In300      In  0.24277287  0.18821148  0.11813446     1.36900
C301        C  0.28207759  0.20677127  0.09878132     0.76900
O302        O  0.24702022  0.16478246  0.15078297    -0.61500
O303        O  0.22755844  0.15501968  0.10186052    -0.52400
C304        C  0.22883918  0.19970148  0.17890161     0.69600
O305        O  0.24745931  0.20628949  0.17259693    -0.47300
C306        C  0.22880643  0.20076422  0.05922757     0.74300
O307        O  0.27567468  0.21036495  0.13005445    -0.59200
O308        O  0.21987399  0.18251407  0.07089539    -0.49200
O309        O  0.26821638  0.19342980  0.07749772    -0.55600
C310        C  0.23610998  0.15029851  0.12799671     0.84500
O311        O  0.21705736  0.18609670  0.15534288    -0.57500
O312        O  0.24465896  0.21250455  0.07825351    -0.60800
In313      In  0.71957059  0.13262344  0.03416765     1.36900
C314        C  0.74014599  0.11430087  0.05634889     0.76900
O315        O  0.74916565  0.15384557  0.00449314    -0.61500
O316        O  0.73632096  0.16668910  0.04163742    -0.52400
C317        C  0.69528288  0.12382829  0.47842431     0.69600
O318        O  0.70270345  0.11312752  0.48982753    -0.47300
C319        C  0.69375772  0.12214158  0.09395845     0.74300
O320        O  0.73295878  0.11261537  0.02245005    -0.59200
O321        O  0.70780861  0.14031145  0.08829625    -0.49200
O322        O  0.73671999  0.12536204  0.07891755    -0.55600
C323        C  0.75102275  0.16979833  0.01980104     0.84500
O324        O  0.70103226  0.13890904  0.99010774    -0.57500
O325        O  0.69256436  0.10982193  0.06808625    -0.60800
In326      In  0.80087494  0.05134924  0.12752661     1.36900
C327        C  0.78042090  0.07040956  0.10767029     0.76900
O328        O  0.82388661  0.07907397  0.16057662    -0.61500
O329        O  0.83424956  0.06894939  0.11309774    -0.52400
C330        C  0.79056545  0.02588842  0.18789399     0.69600
O331        O  0.77916114  0.03212220  0.17453247    -0.47300
C332        C  0.79285429  0.02545391  0.06940394     0.74300
O333        O  0.78468499  0.06865982  0.14244307    -0.59200
O334        O  0.80906151  0.04259814  0.07067644    -0.49200
O335        O  0.78668087  0.06240657  0.08331876    -0.55600
C336        C  0.83875933  0.08210703  0.13949848     0.84500
O337        O  0.80738830  0.03283274  0.17036962    -0.57500
O338        O  0.78100688  0.02161179  0.09801084    -0.60800
In339      In  0.74982393  0.94521758  0.37973912     1.36900
C340        C  0.71037645  0.92638513  0.39817559     0.76900
O341        O  0.74058796  0.91492301  0.35254679    -0.61500
O342        O  0.76818910  0.92929213  0.38439122    -0.52400
C343        C  0.76295811  0.96874233  0.31657255     0.69600
O344        O  0.74621444  0.96363908  0.33312218    -0.47300
C345        C  0.76737762  0.97111871  0.43900787     0.74300
O346        O  0.71683127  0.93227483  0.36403670    -0.59200
O347        O  0.76319061  0.95277800  0.44030465    -0.49200
O348        O  0.72417729  0.93080171  0.42311615    -0.55600
C349        C  0.75568228  0.91392404  0.36488301     0.84500
O350        O  0.77335053  0.96200843  0.33286870    -0.57500
O351        O  0.76288324  0.97621593  0.40718843    -0.60800
In352      In  0.58492732  0.86446792  0.45561407     1.36900
C353        C  0.62472713  0.88419440  0.43918924     0.76900
O354        O  0.59011748  0.84032550  0.48252874    -0.61500
O355        O  0.56585201  0.83084677  0.44250570    -0.52400
C356        C  0.57185985  0.87407885  0.01788236     0.69600
O357        O  0.58415981  0.88563806  0.99218734    -0.47300
C358        C  0.56986436  0.87634857  0.39756290     0.74300
O359        O  0.61789794  0.88157792  0.47346764    -0.59200
O360        O  0.56852318  0.85908251  0.39846454    -0.49200
O361        O  0.61109197  0.87616233  0.41339474    -0.55600
C362        C  0.57590311  0.82568479  0.46423512     0.84500
O363        O  0.56464173  0.85527014  0.01136068    -0.57500
O364        O  0.57912290  0.88755965  0.42635927    -0.60800
In365      In  0.53372530  0.91987641  0.20478260     1.36900
C366        C  0.55270875  0.95898606  0.22590640     0.76900
O367        O  0.51033672  0.92542343  0.17547459    -0.61500
O368        O  0.50024064  0.90144625  0.21646802    -0.52400
C369        C  0.54320469  0.90456272  0.14313982     0.69600
O370        O  0.54807740  0.92305999  0.14547584    -0.47300
C371        C  0.54416236  0.90603295  0.26671244     0.74300
O372        O  0.55977136  0.95221042  0.20035819    -0.59200
O373        O  0.52600992  0.89814293  0.25501292    -0.49200
O374        O  0.53570108  0.94583438  0.23981782    -0.55600
C375        C  0.49544498  0.91148040  0.19390093     0.84500
O376        O  0.53305408  0.89395019  0.17174641    -0.57500
O377        O  0.55699955  0.92071500  0.24629054    -0.60800
In378      In  0.61377255  0.08349347  0.28751152     1.36900
C379        C  0.59313750  0.04367205  0.27250499     0.76900
O380        O  0.58980233  0.08470250  0.32442448    -0.61500
O381        O  0.59364411  0.09505275  0.26607199    -0.52400
C382        C  0.63828669  0.09820846  0.34943047     0.69600
O383        O  0.62490471  0.07966440  0.34558991    -0.47300
C384        C  0.63949481  0.09769792  0.22729592     0.74300
O385        O  0.60888471  0.05184597  0.29360113    -0.59200
O386        O  0.63077977  0.10688808  0.24043645    -0.49200
O387        O  0.58785634  0.05586810  0.25941219    -0.55600
C388        C  0.58395040  0.09198435  0.29755533     0.84500
O389        O  0.63847799  0.10938572  0.32202596    -0.57500
O390        O  0.63491811  0.08140749  0.24502786    -0.60800
In391      In  0.38784930  0.91534398  0.22215587     1.36900
C392        C  0.40679129  0.95524172  0.23632806     0.76900
O393        O  0.36644764  0.91687481  0.26420690    -0.61500
O394        O  0.37388238  0.89365925  0.27253136    -0.52400
C395        C  0.36160699  0.89654853  0.16446244     0.69600
O396        O  0.37631900  0.91460316  0.16161724    -0.47300
C397        C  0.41827034  0.90830066  0.20840401     0.74300
O398        O  0.39146449  0.94653052  0.21415305    -0.59200
O399        O  0.40939583  0.90489341  0.24096650    -0.49200
O400        O  0.41270754  0.94364823  0.24993170    -0.55600
C401        C  0.36390678  0.90184923  0.28436171     0.84500
O402        O  0.36037769  0.88808059  0.19676606    -0.57500
O403        O  0.41110834  0.91481892  0.18260567    -0.60800
In404      In  0.46834199  0.08026781  0.29549816     1.36900
C405        C  0.44914779  0.04082729  0.27663639     0.76900
O406        O  0.44311154  0.07984086  0.26124949    -0.61500
O407        O  0.47343471  0.10146516  0.24501122    -0.52400
C408        C  0.46023531  0.09487179  0.35898580     0.69600
O409        O  0.45703277  0.07689622  0.35702737    -0.47300
C410        C  0.50724208  0.09017630  0.30474884     0.74300
O411        O  0.44193526  0.04819340  0.30046742    -0.59200
O412        O  0.50105708  0.09634739  0.27652953    -0.49200
O413        O  0.46612645  0.05366850  0.26222440    -0.55600
C414        C  0.45462763  0.09417174  0.23869377     0.84500
O415        O  0.46836221  0.10559758  0.32909222    -0.57500
O416        O  0.49343416  0.07918494  0.32877064    -0.60800
In417      In  0.40921364  0.12878468  0.04689659     1.36900
C418        C  0.36980538  0.10812780  0.06635034     0.76900
O419        O  0.41105598  0.10537247  0.08325094    -0.61500
O420        O  0.42724950  0.13619939  0.10227916    -0.52400
C421        C  0.42754230  0.11875046  0.48674376     0.69600
O422        O  0.40984134  0.11636080  0.48585930    -0.47300
C423        C  0.41896496  0.16739909  0.03612939     0.74300
O424        O  0.37722714  0.10222391  0.03994483    -0.59200
O425        O  0.42786793  0.16224325  0.06083491    -0.49200
O426        O  0.38240340  0.12493412  0.08145867    -0.55600
C427        C  0.42231932  0.11788492  0.10895122     0.84500
O428        O  0.43371981  0.12483705  0.01886691    -0.57500
O429        O  0.40577233  0.15286856  0.01590688    -0.60800
In430      In  0.24482677  0.04415139  0.12901918     1.36900
C431        C  0.28421800  0.06366847  0.10866240     0.76900
O432        O  0.23702828  0.01481378  0.09956025    -0.61500
O433        O  0.22752776  0.03386431  0.07254895    -0.52400
C434        C  0.23074292  0.01932256  0.19085290     0.69600
O435        O  0.24796683  0.02531371  0.17574377    -0.47300
C436        C  0.23735784  0.07471403  0.13726661     0.74300
O437        O  0.27834918  0.06005734  0.14369335    -0.59200
O438        O  0.22627685  0.05912451  0.11694119    -0.49200
O439        O  0.26990375  0.05772634  0.08441297    -0.55600
C440        C  0.22847189  0.01774714  0.07080998     0.84500
O441        O  0.22094673  0.02698699  0.17568575    -0.57500
O442        O  0.25175375  0.07419036  0.15462521    -0.60800
In443      In  0.19590721  0.94011782  0.38580947     1.36900
C444        C  0.21813148  0.92360183  0.40956588     0.76900
O445        O  0.21489741  0.97001230  0.41595558    -0.61500
O446        O  0.18887521  0.94719896  0.44560862    -0.52400
C447        C  0.20405963  0.96375647  0.32282957     0.69600
O448        O  0.21241914  0.95322928  0.32941916    -0.47300
C449        C  0.15859773  0.90903646  0.37054354     0.74300
O450        O  0.22393759  0.93667493  0.38254632    -0.59200
O451        O  0.16183023  0.92444895  0.39017360    -0.49200
O452        O  0.20086786  0.91872952  0.42326634    -0.55600
C453        C  0.20427729  0.96485992  0.44652834     0.84500
O454        O  0.19078146  0.96132504  0.34771333    -0.57500
O455        O  0.17458995  0.91017106  0.35695535    -0.60800
In456      In  0.28127638  0.86243513  0.47233996     1.36900
C457        C  0.26152360  0.88278256  0.45922509     0.76900
O458        O  0.30122021  0.88534497  0.42838796    -0.61500
O459        O  0.29853146  0.85609510  0.42644333    -0.52400
C460        C  0.30211097  0.86493849  0.04117505     0.69600
O461        O  0.28587040  0.86566523  0.04306770    -0.47300
C462        C  0.25127645  0.82366286  0.47392538     0.74300
O463        O  0.27885703  0.89100658  0.47519000    -0.59200
O464        O  0.26247215  0.83186554  0.44460144    -0.49200
O465        O  0.25438607  0.86429733  0.45053412    -0.55600
C466        C  0.30622812  0.87371219  0.41173071     0.84500
O467        O  0.30869636  0.86501980  0.50286240    -0.57500
O468        O  0.25145508  0.83069680  0.00887796    -0.60800
C469        C  0.23003578  0.91422613  0.42402743    -0.06800
C470        C  0.21920360  0.89454364  0.44021108    -0.17900
C471        C  0.22919442  0.88443272  0.45365632     0.10400
C472        C  0.25060275  0.89386952  0.45019572    -0.06700
C473        C  0.26159957  0.91380493  0.43527638    -0.17900
C474        C  0.25161491  0.92415975  0.42266149     0.10400
S475        S  0.21377823  0.85973391  0.47599148    -0.32900
S476        S  0.26732270  0.95016439  0.40657821    -0.32900
H477        H  0.25562652  0.95728607  0.42551404     0.28500
H478        H  0.22838988  0.86230161  0.50417994     0.28400
H479        H  0.20272130  0.88687052  0.44237392     0.19000
H480        H  0.27807021  0.92128628  0.43298734     0.19000
C481        C  0.20985170  0.97850649  0.48053131    -0.06800
C482        C  0.21868651  0.99951069  0.47373408    -0.17900
C483        C  0.22591702  0.01349877  0.50447768     0.10400
C484        C  0.22079258  0.00358403  0.03756166    -0.06700
C485        C  0.21114177  0.98257716  0.04522569    -0.17900
C486        C  0.20491389  0.96839001  0.01487562     0.10400
S487        S  0.23921149  0.04017511  0.49169499    -0.32900
S488        S  0.19382634  0.94185658  0.02795518    -0.32900
H489        H  0.20935725  0.94185234  0.50100492     0.28500
H490        H  0.25184244  0.04333014  0.01422861     0.28400
H491        H  0.22057967  0.00514597  0.44404591     0.19000
H492        H  0.20880991  0.97719586  0.07514372     0.19000
C493        C  0.22274804  0.00430415  0.22320242    -0.06800
C494        C  0.21081672  0.00612329  0.25246919    -0.17900
C495        C  0.20456681  0.99335668  0.28542967     0.10400
C496        C  0.20974655  0.97782618  0.28881222    -0.06700
C497        C  0.22114677  0.97572902  0.25878300    -0.17900
C498        C  0.22749295  0.98854116  0.22617306     0.10400
S499        S  0.19112376  0.99857840  0.32282671    -0.32900
S500        S  0.24094064  0.98336410  0.18865484    -0.32900
H501        H  0.23074914  0.98660038  0.15759510     0.28500
H502        H  0.20400806  0.99916750  0.35302192     0.28400
H503        H  0.20710121  0.01816498  0.25052498     0.19000
H504        H  0.22502929  0.96380062  0.26040525     0.19000
C505        C  0.30606470  0.07426050  0.09732799    -0.06800
C506        C  0.32064938  0.08654101  0.12525539    -0.17900
C507        C  0.34148066  0.09742635  0.11636846     0.10400
C508        C  0.34812990  0.09634766  0.07830515    -0.06700
C509        C  0.33362529  0.08382013  0.05055615    -0.17900
C510        C  0.31280999  0.07275363  0.05955152     0.10400
S511        S  0.35864723  0.11194258  0.15536378    -0.32900
S512        S  0.29593172  0.05679012  0.02151720    -0.32900
H513        H  0.28481440  0.03982818  0.04608128     0.28500
H514        H  0.37328498  0.10641195  0.14618702     0.28400
H515        H  0.31580136  0.08775029  0.15439166     0.19000
H516        H  0.33852462  0.08270916  0.02140137     0.19000
C517        C  0.42963427  0.11177931  0.14360292    -0.06800
C518        C  0.44777428  0.12648819  0.16163614    -0.17900
C519        C  0.45618222  0.12142932  0.19309865     0.10400
C520        C  0.44637261  0.10110216  0.20690373    -0.06700
C521        C  0.42797173  0.08655503  0.18958289    -0.17900
C522        C  0.41945532  0.09161088  0.15843893     0.10400
S523        S  0.47912056  0.14170076  0.21468446    -0.32900
S524        S  0.39548609  0.07155228  0.13962952    -0.32900
H525        H  0.38664201  0.08392700  0.13627231     0.28500
H526        H  0.47321982  0.13511401  0.25335243     0.28400
H527        H  0.45563474  0.14205501  0.15090235     0.19000
H528        H  0.42018289  0.07095774  0.20017985     0.19000
C529        C  0.43675101  0.11381042  0.45369728    -0.06800
C530        C  0.44747788  0.10355188  0.46154808    -0.17900
C531        C  0.45606022  0.09786826  0.43141114     0.10400
C532        C  0.45376366  0.10239019  0.39243449    -0.06700
C533        C  0.44357883  0.11316486  0.38466733    -0.17900
C534        C  0.43509163  0.11893533  0.41477135     0.10400
S535        S  0.47015840  0.08540181  0.44461306    -0.32900
S536        S  0.42281339  0.13319013  0.40161527    -0.32900
H537        H  0.42947912  0.14577098  0.43478648     0.28500
H538        H  0.48435649  0.09375131  0.41394297     0.28400
H539        H  0.44904218  0.09978226  0.49139376     0.19000
H540        H  0.44185218  0.11676698  0.35478308     0.19000
C541        C  0.34970548  0.89440835  0.31798682    -0.06800
C542        C  0.33649363  0.90224219  0.32236786    -0.17900
C543        C  0.32185333  0.89541050  0.35198675     0.10400
C544        C  0.32040389  0.88044003  0.37838166    -0.06700
C545        C  0.33335119  0.87235057  0.37391587    -0.17900
C546        C  0.34814534  0.87933737  0.34448442     0.10400
S547        S  0.30427658  0.90497845  0.35383411    -0.32900
S548        S  0.36475867  0.86876690  0.34333288    -0.32900
H549        H  0.38267839  0.88794285  0.34062616     0.28500
H550        H  0.31430762  0.92076259  0.32637197     0.28400
H551        H  0.33727257  0.91347495  0.30183921     0.19000
H552        H  0.33240023  0.86096868  0.39433102     0.19000
C553        C  0.34667284  0.88634980  0.13292270    -0.06800
C554        C  0.32584944  0.87523148  0.14243195    -0.17900
C555        C  0.31088585  0.86721479  0.11325680     0.10400
C556        C  0.31682628  0.87067414  0.07363699    -0.06700
C557        C  0.33769830  0.88078042  0.06431672    -0.17900
C558        C  0.35262285  0.88840185  0.09343360     0.10400
S559        S  0.28462746  0.85238024  0.12843297    -0.32900
S560        S  0.37894290  0.90015853  0.07837687    -0.32900
H561        H  0.38547690  0.89366040  0.11098553     0.28500
H562        H  0.27855800  0.83847270  0.09722737     0.28400
H563        H  0.32118431  0.87314877  0.17277635     0.19000
H564        H  0.34247077  0.88309727  0.03402899     0.19000
C565        C  0.41712402  0.97716851  0.24615523    -0.06800
C566        C  0.43835998  0.98757267  0.25130302    -0.17900
C567        C  0.44908152  0.00816499  0.26191282     0.10400
C568        C  0.43850667  0.01893983  0.26653325    -0.06700
C569        C  0.41722784  0.00852954  0.26174833    -0.17900
C570        C  0.40640852  0.98774120  0.25219407     0.10400
S571        S  0.47601320  0.01943272  0.27142131    -0.32900
S572        S  0.37895988  0.97535677  0.25068183    -0.32900
H573        H  0.37572957  0.95766322  0.27032656     0.28500
H574        H  0.47618691  0.03092552  0.30380943     0.28400
H575        H  0.44666849  0.97949591  0.24764149     0.19000
H576        H  0.40893928  0.01658958  0.26596612     0.19000
C577        C  0.56643420  0.09547263  0.30206921    -0.06800
C578        C  0.55468171  0.08874279  0.33636211    -0.17900
C579        C  0.53631523  0.08885665  0.33986071     0.10400
C580        C  0.52860400  0.09439826  0.30734682    -0.06700
C581        C  0.54116947  0.10270391  0.27444945    -0.17900
C582        C  0.56016448  0.10395194  0.27201071     0.10400
S583        S  0.52391842  0.08237280  0.38677554    -0.32900
S584        S  0.57551539  0.11668185  0.22980806    -0.32900
H585        H  0.59364142  0.12771751  0.25144909     0.28500
H586        H  0.51818237  0.09737296  0.38504491     0.28400
H587        H  0.55971685  0.08319249  0.36062132     0.19000
H588        H  0.53605848  0.10802109  0.24993819     0.19000
C589        C  0.47434241  0.90795705  0.19209838    -0.06800
C590        C  0.46052070  0.89566419  0.22121464    -0.17900
C591        C  0.44159985  0.89449014  0.22599264     0.10400
C592        C  0.43638688  0.90615742  0.20143311    -0.06700
C593        C  0.44948410  0.91717711  0.17047160    -0.17900
C594        C  0.46817154  0.91797980  0.16520070     0.10400
S595        S  0.42453015  0.87811330  0.26372239    -0.32900
S596        S  0.48333468  0.93220246  0.12383228    -0.32900
H597        H  0.48912116  0.91776847  0.11419808     0.28500
H598        H  0.43479084  0.86734461  0.27148283     0.28400
H599        H  0.46488094  0.88757492  0.24150413     0.19000
H600        H  0.44541280  0.92572268  0.15068865     0.19000
C601        C  0.56335874  0.98051719  0.23881499    -0.06800
C602        C  0.55167806  0.98975581  0.24680660    -0.17900
C603        C  0.56087716  0.01016891  0.25869569     0.10400
C604        C  0.58230507  0.02174331  0.26275977    -0.06700
C605        C  0.59394102  0.01240508  0.25560487    -0.17900
C606        C  0.58477206  0.99202168  0.24369616     0.10400
S607        S  0.54441736  0.02037083  0.26913831    -0.32900
S608        S  0.60130226  0.98164912  0.23595366    -0.32900
H609        H  0.58777956  0.96234329  0.25163059     0.28500
H610        H  0.55582386  0.03218870  0.30121367     0.28400
H611        H  0.53523721  0.98103169  0.24353444     0.19000
H612        H  0.61039131  0.02116205  0.25874317     0.19000
C613        C  0.54984135  0.89633957  0.11068132    -0.06800
C614        C  0.56845290  0.90953432  0.09228473    -0.17900
C615        C  0.57667312  0.90245844  0.06393030     0.10400
C616        C  0.56555804  0.88184491  0.05169929    -0.06700
C617        C  0.54708895  0.86855827  0.07053598    -0.17900
C618        C  0.53914551  0.87550825  0.09973144     0.10400
S619        S  0.60197672  0.92024686  0.04659874    -0.32900
S620        S  0.51496164  0.85710531  0.12064748    -0.32900
H621        H  0.50708136  0.87041405  0.12093116     0.28500
H622        H  0.60862973  0.90592916  0.04720439     0.28400
H623        H  0.57718126  0.92535723  0.10134044     0.19000
H624        H  0.53839540  0.85270505  0.06167499     0.19000
C625        C  0.56191062  0.88333601  0.36512504    -0.06800
C626        C  0.57009024  0.90444680  0.36008279    -0.17900
C627        C  0.56406860  0.91219191  0.32901748     0.10400
C628        C  0.54991128  0.89864903  0.30147948    -0.06700
C629        C  0.54123696  0.87756302  0.30694979    -0.17900
C630        C  0.54685649  0.86975686  0.33860919     0.10400
S631        S  0.57440972  0.93943213  0.32703484    -0.32900
S632        S  0.53375751  0.84240921  0.34395468    -0.32900
H633        H  0.53055993  0.84283314  0.38432301     0.28500
H634        H  0.55655011  0.93842464  0.31257472     0.28400
H635        H  0.58132567  0.91508261  0.38048331     0.19000
H636        H  0.53004248  0.86707744  0.28629588     0.19000
C637        C  0.64678510  0.89543373  0.42957087    -0.06800
C638        C  0.65284897  0.89178869  0.39315388    -0.17900
C639        C  0.67341447  0.90128600  0.38248713     0.10400
C640        C  0.68849131  0.91520898  0.40837239    -0.06700
C641        C  0.68253679  0.91876120  0.44491368    -0.17900
C642        C  0.66194452  0.90933724  0.45556715     0.10400
S643        S  0.67939750  0.89407773  0.33638326    -0.32900
S644        S  0.65617820  0.91657528  0.50182625    -0.32900
H645        H  0.64047421  0.91935625  0.48672514     0.28500
H646        H  0.69644134  0.89333809  0.35052947     0.28400
H647        H  0.64150292  0.88100821  0.37308329     0.19000
H648        H  0.69399218  0.92950355  0.46488753     0.19000
C649        C  0.77595237  0.98516174  0.47264570    -0.06800
C650        C  0.77018482  0.97730739  0.00851628    -0.17900
C651        C  0.77725339  0.99001528  0.04121432     0.10400
C652        C  0.78755698  0.01139498  0.03617968    -0.06700
C653        C  0.79514558  0.01912824  0.50093695    -0.17900
C654        C  0.78910254  0.00643626  0.46810973     0.10400
S655        S  0.77251335  0.97799156  0.08851537    -0.32900
S656        S  0.79887261  0.01836837  0.42143512    -0.32900
H657        H  0.80166601  0.00257469  0.40694895     0.28500
H658        H  0.79080217  0.99313381  0.10551841     0.28400
H659        H  0.76198674  0.96091249  0.01278614     0.19000
H660        H  0.80483165  0.03546023  0.49702387     0.19000
C661        C  0.76996909  0.98203350  0.28163416    -0.06800
C662        C  0.79096423  0.99542264  0.27627690    -0.17900
C663        C  0.79820800  0.01007208  0.24640865     0.10400
C664        C  0.78420606  0.01115678  0.22059417    -0.06700
C665        C  0.76328081  0.99737086  0.22538465    -0.17900
C666        C  0.75606863  0.98270990  0.25501308     0.10400
S667        S  0.82529824  0.02769784  0.24451129    -0.32900
S668        S  0.72900849  0.96480302  0.25614293    -0.32900
H669        H  0.73108153  0.94790127  0.26604416     0.28500
H670        H  0.82336743  0.04497542  0.23779395     0.28400
H671        H  0.80177235  0.99512565  0.29659327     0.19000
H672        H  0.75240716  0.99768606  0.20526044     0.19000
C673        C  0.67998752  0.11577920  0.12823971    -0.06800
C674        C  0.67730747  0.13048631  0.14809907    -0.17900
C675        C  0.66445661  0.12528073  0.18069986     0.10400
C676        C  0.65359923  0.10475505  0.19352609    -0.06700
C677        C  0.65631977  0.09011889  0.17362997    -0.17900
C678        C  0.66950232  0.09536708  0.14181513     0.10400
S679        S  0.66321940  0.14565065  0.20520421    -0.32900
S680        S  0.67281661  0.07531765  0.12131641    -0.32900
H681        H  0.69426503  0.08714924  0.12080876     0.28500
H682        H  0.66528549  0.13940881  0.24280246     0.28400
H683        H  0.68541094  0.14622723  0.13836271     0.19000
H684        H  0.64826237  0.07434842  0.18323078     0.19000
C685        C  0.65270183  0.10565512  0.38293467    -0.06800
C686        C  0.65190244  0.09104905  0.40932626    -0.17900
C687        C  0.66508627  0.09662425  0.44125126     0.10400
C688        C  0.68000865  0.11731603  0.44685244    -0.06700
C689        C  0.68053133  0.13206622  0.42137202    -0.17900
C690        C  0.66722756  0.12651698  0.38944384     0.10400
S691        S  0.65665111  0.07678948  0.97864782    -0.32900
S692        S  0.66971932  0.14683895  0.35845214    -0.32900
H693        H  0.67450252  0.13911920  0.32527166     0.28500
H694        H  0.66219035  0.09116291  0.00890091     0.28400
H695        H  0.64073122  0.07504202  0.40541827     0.19000
H696        H  0.69177894  0.14801972  0.42573068     0.19000
C697        C  0.76959470  0.08133445  0.09562719    -0.06800
C698        C  0.77050517  0.08675205  0.05610109    -0.17900
C699        C  0.76182766  0.09814857  0.04279221     0.10400
C700        C  0.75120990  0.10381020  0.06913693    -0.06700
C701        C  0.75038382  0.09856698  0.10869888    -0.17900
C702        C  0.75919516  0.08727156  0.12212332     0.10400
S703        S  0.76602443  0.10604894  0.99238990    -0.32900
S704        S  0.75581930  0.08031639  0.17298983    -0.32900
H705        H  0.74949322  0.05969782  0.16568616     0.28500
H706        H  0.76996728  0.12595264  0.00012858     0.28400
H707        H  0.77866703  0.08267464  0.03540580     0.19000
H708        H  0.74220353  0.10271724  0.12921843     0.19000
C709        C  0.23428740  0.12986444  0.13123857    -0.06800
C710        C  0.24182295  0.12538319  0.16506016    -0.17900
C711        C  0.24190801  0.10702993  0.16898573     0.10400
C712        C  0.23451800  0.09267621  0.13824196    -0.06700
C713        C  0.22609390  0.09665975  0.10524827    -0.17900
C714        C  0.22620085  0.11508833  0.10105864     0.10400
S715        S  0.25137777  0.10278167  0.21418814    -0.32900
S716        S  0.21721617  0.11920564  0.05517082    -0.32900
H717        H  0.23543729  0.13759212  0.04753456     0.28500
H718        H  0.23698697  0.08177759  0.21585739     0.28400
H719        H  0.24784353  0.13632799  0.18872143     0.19000
H720        H  0.22050678  0.08586295  0.08129734     0.19000
C721        C  0.41986608  0.22427061  0.03732341    -0.06800
C722        C  0.41527681  0.21037393  0.50224180    -0.17900
C723        C  0.41638729  0.19251026  0.50030027     0.10400
C724        C  0.42230816  0.18833792  0.03361884    -0.06700
C725        C  0.42785594  0.20013841  0.06780156    -0.17900
C726        C  0.42640064  0.21779172  0.07024501     0.10400
S727        S  0.41021206  0.17920514  0.45433404    -0.32900
S728        S  0.43109105  0.23001392  0.11724969    -0.32900
H729        H  0.41309359  0.23109999  0.11694850     0.28500
H730        H  0.42502304  0.17333794  0.45797479     0.28400
H731        H  0.41039535  0.21518308  0.47662990     0.19000
H732        H  0.43182232  0.19474573  0.09381900     0.19000
C733        C  0.34570804  0.24209113  0.06724705    -0.06800
C734        C  0.33303441  0.22337887  0.04862649    -0.17900
C735        C  0.31244936  0.21122134  0.05882607     0.10400
C736        C  0.30397360  0.21806158  0.08779094    -0.06700
C737        C  0.31659847  0.23693096  0.10595709    -0.17900
C738        C  0.33724033  0.24906691  0.09593953     0.10400
S739        S  0.29823146  0.18685814  0.03484943    -0.32900
S740        S  0.35210620  0.27384783  0.11860669    -0.32900
H741        H  0.33696751  0.27236634  0.14433649     0.28500
H742        H  0.28921324  0.17607140  0.06948959     0.28400
H743        H  0.33938140  0.21778593  0.02683938     0.19000
H744        H  0.31011854  0.24243648  0.12758026     0.19000
C745        C  0.22152865  0.20821369  0.02640484    -0.06800
C746        C  0.22883413  0.22928658  0.02403246    -0.17900
C747        C  0.22483820  0.23460555  0.49200902     0.10400
C748        C  0.21035827  0.22123055  0.46459605    -0.06700
C749        C  0.20203608  0.20010853  0.46930897    -0.17900
C750        C  0.20759604  0.19519414  0.99771493     0.10400
S751        S  0.23540181  0.26190015  0.49092530    -0.32900
S752        S  0.19778713  0.16807090  0.99649831    -0.32900
H753        H  0.21708031  0.16991649  0.00142681     0.28500
H754        H  0.21694727  0.26088997  0.48062423     0.28400
H755        H  0.23907920  0.23945317  0.04623208     0.19000
H756        H  0.19104859  0.18972916  0.44826029     0.19000
C757        C  0.20802822  0.22086104  0.27578001    -0.06800
C758        C  0.22646696  0.23409973  0.25675241    -0.17900
C759        C  0.23320227  0.22780497  0.22458396     0.10400
C760        C  0.22156432  0.20751000  0.21099089    -0.06700
C761        C  0.20283214  0.19435285  0.22904318    -0.17900
C762        C  0.19605250  0.20065960  0.26140011     0.10400
S763        S  0.25636209  0.24682123  0.20125279    -0.32900
S764        S  0.17229603  0.18197975  0.28317383    -0.32900
H765        H  0.18092802  0.18406057  0.32045651     0.28500
H766        H  0.24903877  0.24067324  0.16302839     0.28400
H767        H  0.23573643  0.24971874  0.26664422     0.19000
H768        H  0.19370049  0.17879863  0.21869413     0.19000
C769        C  0.22270159  0.30577115  0.40092670    -0.06800
C770        C  0.22583020  0.31056839  0.44081130    -0.17900
C771        C  0.23679588  0.33080044  0.45372501     0.10400
C772        C  0.24547043  0.34691992  0.42615313    -0.06700
C773        C  0.24204106  0.34207034  0.38622371    -0.17900
C774        C  0.23052246  0.32184611  0.37340970     0.10400
S775        S  0.22953307  0.34213960  0.99765720    -0.32900
S776        S  0.22566365  0.31776164  0.32176895    -0.32900
H777        H  0.20528494  0.30203759  0.32609038     0.28500
H778        H  0.22826280  0.35936492  0.98663390     0.28400
H779        H  0.21971715  0.29841029  0.46228992     0.19000
H780        H  0.24817114  0.35416005  0.36462064     0.19000
C781        C  0.32019448  0.43576488  0.36678270    -0.06800
C782        C  0.31240512  0.43399764  0.32894345    -0.17900
C783        C  0.32532122  0.44079337  0.29646194     0.10400
C784        C  0.34657549  0.44946240  0.30172098    -0.06700
C785        C  0.35445844  0.45203524  0.33963649    -0.17900
C786        C  0.34155782  0.44541249  0.37215937     0.10400
S787        S  0.31375145  0.43815785  0.24921707    -0.32900
S788        S  0.35335171  0.45003656  0.41960303    -0.32900
H789        H  0.33928625  0.45429240  0.43779923     0.28500
H790        H  0.32969257  0.45658960  0.23414257     0.28400
H791        H  0.29607509  0.42684224  0.32451863     0.19000
H792        H  0.37077111  0.45887839  0.34394357     0.19000
C793        C  0.34569556  0.44648789  0.11722762    -0.06800
C794        C  0.34385543  0.46131385  0.09585648    -0.17900
C795        C  0.33088895  0.45597921  0.06342832     0.10400
C796        C  0.31920724  0.43523342  0.05215770    -0.06700
C797        C  0.32068121  0.42044437  0.07428071    -0.17900
C798        C  0.33335273  0.42571527  0.10686596     0.10400
S799        S  0.33078230  0.47647763  0.03697317    -0.32900
S800        S  0.33210766  0.40497651  0.13489219    -0.32900
H801        H  0.33130176  0.41329115  0.17112264     0.28500
H802        H  0.33272094  0.46941009  0.00019100     0.28400
H803        H  0.35308083  0.47728188  0.10365967     0.19000
H804        H  0.31146472  0.40444160  0.06670532     0.19000
C805        C  0.44862125  0.33779270  0.19984099    -0.06800
C806        C  0.43399134  0.31723878  0.20634863    -0.17900
C807        C  0.42630092  0.30327488  0.17555617     0.10400
C808        C  0.43370438  0.30982256  0.13731520    -0.06700
C809        C  0.44868814  0.33025708  0.13096412    -0.17900
C810        C  0.45598780  0.34433608  0.16158296     0.10400
S811        S  0.40599006  0.27781635  0.18657566    -0.32900
S812        S  0.47334989  0.37065725  0.14927760    -0.32900
H813        H  0.46331113  0.37832820  0.17218413     0.28500
H814        H  0.39363633  0.27709765  0.15529797     0.28400
H815        H  0.42806503  0.31213229  0.23551427     0.19000
H816        H  0.45426951  0.33546334  0.10165270     0.19000
C817        C  0.44629047  0.33811146  0.38385662    -0.06800
C818        C  0.46023500  0.33628957  0.40806525    -0.17900
C819        C  0.45359208  0.32275138  0.43984229     0.10400
C820        C  0.43242199  0.31023176  0.44725770    -0.06700
C821        C  0.41854918  0.31191554  0.42262351    -0.17900
C822        C  0.42515227  0.32530922  0.39085854     0.10400
S823        S  0.47294942  0.32315736  0.47094532    -0.32900
S824        S  0.40569094  0.32433154  0.35913925    -0.32900
H825        H  0.41591085  0.32479496  0.32452122     0.28500
H826        H  0.46248135  0.32379871  0.00479736     0.28400
H827        H  0.47646541  0.34599662  0.40305431     0.19000
H828        H  0.40229520  0.30227756  0.42748078     0.19000
C829        C  0.43475579  0.40906301  0.25828097    -0.06800
C830        C  0.42843544  0.41740676  0.28802439    -0.17900
C831        C  0.41825623  0.42806019  0.27966395     0.10400
C832        C  0.41477156  0.43120457  0.24034413    -0.06700
C833        C  0.42097684  0.42278805  0.21059547    -0.17900
C834        C  0.43056196  0.41155644  0.21899876     0.10400
S835        S  0.40955723  0.43649404  0.32073599    -0.32900
S836        S  0.43647682  0.40052075  0.17808599    -0.32900
H837        H  0.42745388  0.38092447  0.19487552     0.28500
H838        H  0.38982717  0.42912891  0.30550416     0.28400
H839        H  0.43124205  0.41545723  0.31829746     0.19000
H840        H  0.41821368  0.42483182  0.18034301     0.19000
C841        C  0.57196451  0.76717158  0.45778002    -0.06800
C842        C  0.58153115  0.77727845  0.98963942    -0.17900
C843        C  0.58093076  0.79531653  0.99434731     0.10400
C844        C  0.57231598  0.80454989  0.46553909    -0.06700
C845        C  0.56358268  0.79210852  0.43262002    -0.17900
C846        C  0.56357178  0.77374343  0.42815607     0.10400
S847        S  0.59210421  0.80985587  0.03815853    -0.32900
S848        S  0.55451377  0.76059380  0.38229124    -0.32900
H849        H  0.57140273  0.75791098  0.37657653     0.28500
H850        H  0.57738569  0.81582631  0.04262903     0.28400
H851        H  0.58902407  0.77310019  0.01170848     0.19000
H852        H  0.55799053  0.79738564  0.40881436     0.19000
C853        C  0.75650713  0.85766642  0.35902703    -0.06800
C854        C  0.74686122  0.86257328  0.32945183    -0.17900
C855        C  0.74767060  0.88144695  0.32878550     0.10400
C856        C  0.75778104  0.89567038  0.35916035    -0.06700
C857        C  0.76832106  0.89120048  0.38753931    -0.17900
C858        C  0.76766289  0.87240199  0.38803529     0.10400
S859        S  0.73586750  0.88653815  0.28795525    -0.32900
S860        S  0.77990765  0.86762023  0.42843752    -0.32900
H861        H  0.76305504  0.84830031  0.43699236     0.28500
H862        H  0.75065979  0.90740013  0.28551952     0.28400
H863        H  0.73863174  0.85161024  0.30655314     0.19000
H864        H  0.77611853  0.90191898  0.41101475     0.19000
C865        C  0.68450939  0.76497369  0.39187614    -0.06800
C866        C  0.67864506  0.76533149  0.43061658    -0.17900
C867        C  0.65809344  0.75654744  0.44113944     0.10400
C868        C  0.64272488  0.74637697  0.41266394    -0.06700
C869        C  0.64854690  0.74577758  0.37401653    -0.17900
C870        C  0.66913005  0.75471269  0.36340950     0.10400
S871        S  0.65268886  0.76026628  0.49070519    -0.32900
S872        S  0.67457869  0.75176353  0.31343413    -0.32900
H873        H  0.69010185  0.74747068  0.32292705     0.28500
H874        H  0.63758117  0.76501542  0.48033032     0.28400
H875        H  0.69019767  0.77335223  0.45270755     0.19000
H876        H  0.63694176  0.73787258  0.35195832     0.19000
C877        C  0.78638006  0.76844188  0.02542950    -0.06800
C878        C  0.79306921  0.76775074  0.98758842    -0.17900
C879        C  0.78674017  0.77927032  0.45638917     0.10400
C880        C  0.77299896  0.78659961  0.46063394    -0.06700
C881        C  0.76916665  0.78570399  0.99975407    -0.17900
C882        C  0.77483239  0.77811617  0.03156166     0.10400
S883        S  0.79767312  0.77865751  0.41003218    -0.32900
S884        S  0.76714280  0.78162040  0.07939578    -0.32900
H885        H  0.78519101  0.78533403  0.09822356     0.28500
H886        H  0.79854421  0.79640198  0.39521749     0.28400
H887        H  0.80238962  0.76598139  0.48543380     0.19000
H888        H  0.75972501  0.79246441  0.00487364     0.19000
C889        C  0.77964892  0.76603059  0.20601099    -0.06800
C890        C  0.79395849  0.78355753  0.22612501    -0.17900
C891        C  0.78815861  0.79124338  0.25775737     0.10400
C892        C  0.76741408  0.78142146  0.26945201    -0.06700
C893        C  0.75305963  0.76432786  0.24822472    -0.17900
C894        C  0.75883845  0.75681168  0.21645112     0.10400
S895        S  0.80817571  0.81298140  0.28279178    -0.32900
S896        S  0.73873738  0.73605034  0.18932892    -0.32900
H897        H  0.74755299  0.74371572  0.15253955     0.28500
H898        H  0.80270724  0.80353289  0.31965312     0.28400
H899        H  0.80994003  0.79088158  0.21814909     0.19000
H900        H  0.73704541  0.75687473  0.25599251     0.19000
C901        C  0.74719243  0.63894723  0.06336996    -0.06800
C902        C  0.75542810  0.65409038  0.03438721    -0.17900
C903        C  0.76544730  0.67486336  0.04394641     0.10400
C904        C  0.76761523  0.68083890  0.08357403    -0.06700
C905        C  0.75917078  0.66569229  0.11251069    -0.17900
C906        C  0.74888762  0.64493504  0.10292638     0.10400
S907        S  0.77442390  0.69285261  0.00409967    -0.32900
S908        S  0.73757582  0.62698003  0.14249885    -0.32900
H909        H  0.71905600  0.61460392  0.12287668     0.28500
H910        H  0.76787519  0.70558447  0.02062872     0.28400
H911        H  0.75399527  0.64971712  0.00393732     0.19000
H912        H  0.76054391  0.67004710  0.14296590     0.19000
C913        C  0.47170339  0.55951366  0.17985111    -0.06800
C914        C  0.45726384  0.55712557  0.20806492    -0.17900
C915        C  0.43907757  0.53857634  0.21281253     0.10400
C916        C  0.43471953  0.52191758  0.18800076    -0.06700
C917        C  0.44860642  0.52477988  0.15809594    -0.17900
C918        C  0.46688420  0.54331762  0.15359895     0.10400
S919        S  0.42306927  0.53693570  0.25311236    -0.32900
S920        S  0.48328743  0.54523951  0.11376641    -0.32900
H921        H  0.48985665  0.56583499  0.10558106     0.28500
H922        H  0.42367880  0.52040147  0.27046615     0.28400
H923        H  0.46074540  0.56938730  0.22843196     0.19000
H924        H  0.44536688  0.51237506  0.13827276     0.19000
C925        C  0.54125556  0.65144841  0.28225419    -0.06800
C926        C  0.53571496  0.64362607  0.32024682    -0.17900
C927        C  0.54129699  0.65652939  0.35269228     0.10400
C928        C  0.55342406  0.67789033  0.34752410    -0.06700
C929        C  0.55791124  0.68577804  0.30941782    -0.17900
C930        C  0.55175324  0.67287129  0.27684088     0.10400
S931        S  0.53197145  0.64472830  0.39963672    -0.32900
S932        S  0.55753670  0.68476417  0.22939120    -0.32900
H933        H  0.53903838  0.67006681  0.21230245     0.28500
H934        H  0.52838674  0.66011601  0.41356436     0.28400
H935        H  0.52718398  0.62726240  0.32486919     0.19000
H936        H  0.56668801  0.70214199  0.30490991     0.19000
C937        C  0.54650045  0.64491687  0.09341409    -0.06800
C938        C  0.53486235  0.65384610  0.08263169    -0.17900
C939        C  0.54145474  0.66880906  0.05350297     0.10400
C940        C  0.56005028  0.67488848  0.03371877    -0.06700
C941        C  0.57131332  0.66541630  0.04373382    -0.17900
C942        C  0.56469163  0.65043059  0.07271174     0.10400
S943        S  0.52572526  0.67994131  0.04442666    -0.32900
S944        S  0.57996129  0.63864420  0.08077096    -0.32900
H945        H  0.56309026  0.61876194  0.08409296     0.28500
H946        H  0.54201959  0.70010745  0.04825665     0.28400
H947        H  0.52088341  0.64980104  0.09817939     0.19000
H948        H  0.58533143  0.66943189  0.02837008     0.19000
C949        C  0.56062456  0.46709878  0.29966729    -0.06800
C950        C  0.55585276  0.45327527  0.26876484    -0.17900
C951        C  0.53749282  0.43460353  0.26797804     0.10400
C952        C  0.52354255  0.42911918  0.29938576    -0.06700
C953        C  0.52881151  0.44249934  0.33123864    -0.17900
C954        C  0.54722332  0.46116752  0.33201500     0.10400
S955        S  0.53217576  0.41944835  0.22440519    -0.32900
S956        S  0.55283711  0.47643944  0.37549395    -0.32900
H957        H  0.57383015  0.48306714  0.37518558     0.28500
H958        H  0.51285633  0.41743537  0.21866618     0.28400
H959        H  0.56593050  0.45755373  0.24374917     0.19000
H960        H  0.51849774  0.43838898  0.35584718     0.19000
C961        C  0.64883867  0.54495038  0.18866986    -0.06800
C962        C  0.65168179  0.53041978  0.16858767    -0.17900
C963        C  0.66429991  0.53571381  0.13566142     0.10400
C964        C  0.67490861  0.55622052  0.12268844    -0.06700
C965        C  0.67189725  0.57070339  0.14259656    -0.17900
C966        C  0.65889882  0.56532618  0.17488142     0.10400
S967        S  0.66542186  0.51537497  0.11081463    -0.32900
S968        S  0.65530096  0.58510087  0.19588324    -0.32900
H969        H  0.63395576  0.57276682  0.19865017     0.28500
H970        H  0.66366993  0.52193078  0.07331208     0.28400
H971        H  0.64383632  0.51468693  0.17838954     0.19000
H972        H  0.67968481  0.58644400  0.13283915     0.19000
C973        C  0.64842300  0.54330681  0.37690453    -0.06800
C974        C  0.65954744  0.56429599  0.38473892    -0.17900
C975        C  0.67360901  0.57215821  0.41527162     0.10400
C976        C  0.67704984  0.55879545  0.43880138    -0.06700
C977        C  0.66604038  0.53775605  0.43073617    -0.17900
C978        C  0.65173383  0.52987613  0.40034013     0.10400
S979        S  0.68592571  0.59931417  0.42315488    -0.32900
S980        S  0.63767040  0.50256817  0.39419178    -0.32900
H981        H  0.61881240  0.50145146  0.38759619     0.28500
H982        H  0.68068056  0.59734414  0.46296403     0.28400
H983        H  0.65719124  0.57477381  0.36695599     0.19000
H984        H  0.66834438  0.52728605  0.44863035     0.19000
C985        C  0.56194620  0.58121782  0.22767363    -0.06800
C986        C  0.55668240  0.57090121  0.26366995    -0.17900
C987        C  0.56486300  0.55881722  0.27549114     0.10400
C988        C  0.57895025  0.55709695  0.25116669    -0.06700
C989        C  0.58439787  0.56752575  0.21537517    -0.17900
C990        C  0.57643277  0.57984062  0.20374300     0.10400
S991        S  0.55579884  0.54510567  0.32086846    -0.32900
S992        S  0.58619644  0.59406773  0.15906682    -0.32900
H993        H  0.58830622  0.61224992  0.17444506     0.28500
H994        H  0.55486624  0.52715615  0.30715813     0.28400
H995        H  0.54553289  0.57165263  0.28230178     0.19000
H996        H  0.59553266  0.56665761  0.19687677     0.19000
C997        C  0.97582115  0.55651298  0.26152572    -0.06800
C998        C  0.98229091  0.56747376  0.22638587    -0.17900
C999        C  0.00296328  0.57856374  0.21622413     0.10400
C1000       C  0.01772359  0.57822929  0.24114242    -0.06700
C1001       C  0.01111383  0.56705464  0.27615069    -0.17900
C1002       C  0.99048017  0.55616047  0.28643285     0.10400
S1003       S  0.00926644  0.59317073  0.17172880    -0.32900
S1004       S  0.98388906  0.54137283  0.33078535    -0.32900
H1005       H  0.96631143  0.52449340  0.31530154     0.28500
H1006       H  0.02343456  0.61152044  0.19006088     0.28400
H1007       H  0.97118479  0.56798554  0.20719661     0.19000
H1008       H  0.02207442  0.56644599  0.29558360     0.19000
C1009       C  0.09976624  0.85423840  0.37568400    -0.06800
C1010       C  0.11528396  0.85467605  0.35260168    -0.17900
C1011       C  0.13413460  0.87255619  0.34786287     0.10400
C1012       C  0.13787396  0.89071317  0.36686094    -0.06700
C1013       C  0.12176130  0.89060658  0.38745779    -0.17900
C1014       C  0.10285211  0.87266085  0.39225067     0.10400
S1015       S  0.15288039  0.87065843  0.31873166    -0.32900
S1016       S  0.08315176  0.87362288  0.42030712    -0.32900
H1017       H  0.09311825  0.89495559  0.42462516     0.28500
H1018       H  0.15826712  0.88856741  0.29746849     0.28400
H1019       H  0.11304707  0.84073499  0.33925746     0.19000
H1020       H  0.12429851  0.90445489  0.40159792     0.19000
C1021       C  0.23302992  0.80286874  0.47329907    -0.06800
C1022       C  0.21920304  0.78888975  0.01324395    -0.17900
C1023       C  0.20061124  0.77042997  0.01331024     0.10400
C1024       C  0.19600739  0.76491948  0.47477653    -0.06700
C1025       C  0.20599141  0.77346369  0.43942107    -0.17900
C1026       C  0.22409360  0.79226018  0.43815578     0.10400
S1027       S  0.19029721  0.75909302  0.06009746    -0.32900
S1028       S  0.23393600  0.80226934  0.39035439    -0.32900
H1029       H  0.23329356  0.82030124  0.39655381     0.28500
H1030       H  0.18461247  0.73919685  0.04790614     0.28400
H1031       H  0.22606387  0.79590051  0.04091475     0.19000
H1032       H  0.19903970  0.76601460  0.41209335     0.19000
C1033       C  0.11725686  0.67442218  0.06032831    -0.06800
C1034       C  0.10659939  0.65341209  0.05207235    -0.17900
C1035       C  0.09972534  0.63885852  0.08203729     0.10400
C1036       C  0.10371883  0.64541467  0.12126598    -0.06700
C1037       C  0.11510564  0.66636696  0.12938942    -0.17900
C1038       C  0.12187874  0.68088943  0.09953368     0.10400
S1039       S  0.08608179  0.61229645  0.06823962    -0.32900
S1040       S  0.13646124  0.70735788  0.11355792    -0.32900
H1041       H  0.14998624  0.71324831  0.08175958     0.28500
H1042       H  0.09329303  0.60549388  0.09928804     0.28400
H1043       H  0.10313836  0.64827513  0.02207506     0.19000
H1044       H  0.11834356  0.67152389  0.15941266     0.19000
C1045       C  0.10351760  0.65234878  0.30365858    -0.06800
C1046       C  0.09058651  0.65857037  0.32015684    -0.17900
C1047       C  0.09713979  0.67275040  0.35056572     0.10400
C1048       C  0.11685104  0.68030560  0.36668796    -0.06700
C1049       C  0.12994586  0.67441933  0.34965460    -0.17900
C1050       C  0.12370890  0.66096746  0.31797955     0.10400
S1051       S  0.07980744  0.68110214  0.36594247    -0.32900
S1052       S  0.14253620  0.65606340  0.29662660    -0.32900
H1053       H  0.13811835  0.65908369  0.25810901     0.28500
H1054       H  0.09491968  0.70190579  0.36663641     0.28400
H1055       H  0.07522302  0.65249681  0.30904154     0.19000
H1056       H  0.14525373  0.68038966  0.36098178     0.19000
C1057       C  0.10376387  0.74674000  0.44671433    -0.06800
C1058       C  0.11453307  0.76752557  0.43669945    -0.17900
C1059       C  0.10435560  0.77804192  0.42725548     0.10400
C1060       C  0.08284462  0.76781376  0.42896961    -0.06700
C1061       C  0.07202302  0.74707858  0.43913386    -0.17900
C1062       C  0.08216898  0.73638077  0.44752382     0.10400
S1063       S  0.11963921  0.80406829  0.41077183    -0.32900
S1064       S  0.06655827  0.70941617  0.45691362    -0.32900
H1065       H  0.07820770  0.70398644  0.43331132     0.28500
H1066       H  0.10620350  0.80230380  0.38068087     0.28400
H1067       H  0.13105485  0.77558925  0.43537514     0.19000
H1068       H  0.05549184  0.73906647  0.44005477     0.19000
C1069       C  0.89192070  0.74955768  0.16202249    -0.06800
C1070       C  0.87397318  0.73293929  0.17677814    -0.17900
C1071       C  0.85503240  0.73173336  0.17247907     0.10400
C1072       C  0.85377763  0.74752924  0.15275904    -0.06700
C1073       C  0.87197340  0.76483882  0.14064834    -0.17900
C1074       C  0.89095009  0.76621009  0.14580335     0.10400
S1075       S  0.83311588  0.70905776  0.19098518    -0.32900
S1076       S  0.91331734  0.78979660  0.13192429    -0.32900
H1077       H  0.92540736  0.78954172  0.16286972     0.28500
H1078       H  0.82345921  0.70351534  0.15432537     0.28400
H1079       H  0.87448398  0.72019627  0.18995386     0.19000
H1080       H  0.87145295  0.77744540  0.12686542     0.19000
C1081       C  0.98640969  0.76888227  0.06624445    -0.06800
C1082       C  0.99444964  0.75691715  0.05253712    -0.17900
C1083       C  0.01201139  0.76620707  0.52554990     0.10400
C1084       C  0.01560805  0.78298114  0.50186418    -0.06700
C1085       C  0.00604042  0.79416554  0.51136294    -0.17900
C1086       C  0.99227865  0.78772890  0.04759519     0.10400
S1087       S  0.02548251  0.75238575  0.51964267    -0.32900
S1088       S  0.98447111  0.80527067  0.06443848    -0.32900
H1089       H  0.98818176  0.80330495  0.10400887     0.28500
H1090       H  0.04434764  0.76978641  0.51068847     0.28400
H1091       H  0.99047931  0.74261814  0.06679448     0.19000
H1092       H  0.00906843  0.80736633  0.49402461     0.19000
C1093       C  0.98009970  0.76176220  0.24998305    -0.06800
C1094       C  0.98734313  0.78175441  0.26363486    -0.17900
C1095       C  0.00220134  0.79027394  0.29293654     0.10400
C1096       C  0.01019501  0.77864089  0.30931877    -0.06700
C1097       C  0.00300183  0.75871222  0.29581769    -0.17900
C1098       C  0.98784226  0.75000702  0.26723346     0.10400
S1099       S  0.01088144  0.81631314  0.30676457    -0.32900
S1100       S  0.97899516  0.72374450  0.25504101    -0.32900
H1101       H  0.95835674  0.71763412  0.26141282     0.28500
H1102       H  0.03153870  0.82186009  0.31001877     0.28400
H1103       H  0.98171851  0.79106770  0.25084128     0.19000
H1104       H  0.00875549  0.74950757  0.30865368     0.19000
C1105       C  0.80487783  0.57272224  0.01301452    -0.06800
C1106       C  0.78845621  0.55692109  0.03356774    -0.17900
C1107       C  0.76909419  0.55516660  0.03413884     0.10400
C1108       C  0.76594727  0.56955939  0.01365326    -0.06700
C1109       C  0.78185578  0.58428681  0.99059223    -0.17900
C1110       C  0.80112049  0.58601048  0.98989032     0.10400
S1111       S  0.74873522  0.53462404  0.06149510    -0.32900
S1112       S  0.81639493  0.60394149  0.45903360    -0.32900
H1113       H  0.82243373  0.59004879  0.44672298     0.28500
H1114       H  0.75909891  0.52408817  0.07044101     0.28400
H1115       H  0.79101092  0.54641783  0.05074109     0.19000
H1116       H  0.77741510  0.59648620  0.47948319     0.19000
C1117       C  0.89048016  0.54773740  0.20028950    -0.06800
C1118       C  0.90229058  0.56821779  0.18858491    -0.17900
C1119       C  0.89650723  0.57593318  0.15718671     0.10400
C1120       C  0.87883339  0.56276779  0.13554969    -0.06700
C1121       C  0.86650074  0.54252939  0.14811198    -0.17900
C1122       C  0.87191997  0.53497323  0.18050991     0.10400
S1123       S  0.91197854  0.60290150  0.14737240    -0.32900
S1124       S  0.85425001  0.50915797  0.19536972    -0.32900
H1125       H  0.85556248  0.51400741  0.23530457     0.28500
H1126       H  0.89535677  0.60559763  0.13868517     0.28400
H1127       H  0.91624972  0.57842474  0.20399192     0.19000
H1128       H  0.85259116  0.53246023  0.13242557     0.19000
C1129       C  0.87875272  0.56321487  0.44170609    -0.06800
C1130       C  0.86672863  0.54268553  0.43031628    -0.17900
C1131       C  0.87299117  0.53433165  0.40056167     0.10400
C1132       C  0.89157647  0.54684289  0.38067627    -0.06700
C1133       C  0.90334433  0.56744203  0.39160117    -0.17900
C1134       C  0.89741079  0.57562501  0.42200209     0.10400
S1135       S  0.85697724  0.50748160  0.39081135    -0.32900
S1136       S  0.91506486  0.60168452  0.43539318    -0.32900
H1137       H  0.91483487  0.59714403  0.47530349     0.28500
H1138       H  0.87326358  0.50356672  0.39097453     0.28400
H1139       H  0.85247558  0.53288854  0.44526575     0.19000
H1140       H  0.91762540  0.57730273  0.37678870     0.19000
C1141       C  0.91331398  0.68337276  0.10967312    -0.06800
C1142       C  0.89980978  0.66735464  0.13396370    -0.17900
C1143       C  0.88883241  0.64728900  0.12025710     0.10400
C1144       C  0.89155155  0.64287658  0.08129371    -0.06700
C1145       C  0.90543350  0.65890438  0.05729530    -0.17900
C1146       C  0.91645647  0.67895496  0.07107214     0.14000
S1147       S  0.87225444  0.62806591  0.15454395    -0.32900
S1148       S  0.93506389  0.69789762  0.03855980    -0.32900
H1149       H  0.95007733  0.70759348  0.06753742     0.28500
H1150       H  0.85457397  0.62319417  0.13299643     0.28400
H1151       H  0.89745225  0.67053431  0.16373863     0.19000
H1152       H  0.90798792  0.65577541  0.02762013     0.19000
C1153       C  0.80687554  0.22783389  0.01655019    -0.06800
C1154       C  0.80374978  0.21606498  0.49150072    -0.17900
C1155       C  0.78514471  0.19765195  0.48955819     0.10400
C1156       C  0.76941907  0.19029435  0.01488199    -0.06700
C1157       C  0.77280853  0.20542492  0.04234466    -0.17900
C1158       C  0.79130396  0.22389196  0.04385299     0.10400
S1159       S  0.78139461  0.18135334  0.44840020    -0.32900
S1160       S  0.79454330  0.24084882  0.08356568    -0.32900
H1161       H  0.81331131  0.24305237  0.09556325     0.28500
H1162       H  0.76113884  0.17661879  0.44198180     0.28400
H1163       H  0.81509245  0.21945438  0.46906016     0.19000
H1164       H  0.76140795  0.20241966  0.06443891     0.19000
C1165       C  0.89569323  0.13894389  0.14007467    -0.06800
C1166       C  0.88363630  0.13245929  0.17398886    -0.17900
C1167       C  0.86582895  0.11330889  0.17604117     0.10400
C1168       C  0.85939574  0.10037657  0.14299473    -0.06700
C1169       C  0.87208599  0.10632535  0.11001598    -0.17900
C1170       C  0.88987191  0.12540935  0.10792325     0.10400
S1171       S  0.85232991  0.10623783  0.22185869    -0.32900
S1172       S  0.90328275  0.13200626  0.06203127    -0.32900
H1173       H  0.90348236  0.15062030  0.05868431     0.28500
H1174       H  0.84720762  0.08565383  0.21959677     0.28400
H1175       H  0.88812526  0.14238246  0.19925062     0.19000
H1176       H  0.86746264  0.09659264  0.08446308     0.19000
C1177       C  0.89769499  0.25205463  0.07011658    -0.06800
C1178       C  0.90860827  0.24715923  0.04322084    -0.17900
C1179       C  0.91870828  0.23678091  0.05477444     0.10400
C1180       C  0.91763207  0.23066454  0.09412719    -0.06700
C1181       C  0.90725962  0.23601090  0.12114878    -0.17900
C1182       C  0.89753236  0.24672456  0.10987651     0.10400
S1183       S  0.93311592  0.23236114  0.01811041    -0.32900
S1184       S  0.88526269  0.25294577  0.14808308    -0.32900
H1185       H  0.89503915  0.27376897  0.13801579     0.28500
H1186       H  0.94967506  0.23682773  0.04281776     0.28400
H1187       H  0.90927688  0.25139337  0.01281562     0.19000
H1188       H  0.90656930  0.23165468  0.15149759     0.19000
C1189       C  0.19520788  0.42113951  0.47918695    -0.06800
C1190       C  0.20100193  0.41580538  0.00906869    -0.17900
C1191       C  0.21909500  0.41515238  0.00861753     0.10400
C1192       C  0.23167693  0.41938131  0.47797981    -0.06700
C1193       C  0.22728536  0.42921141  0.44804114    -0.17900
C1194       C  0.20930620  0.43007831  0.44805875     0.10400
S1195       S  0.22307766  0.40178356  0.04805269    -0.32900
S1196       S  0.20505071  0.44189232  0.40626999    -0.32900
H1197       H  0.18717028  0.42390313  0.39522195     0.28500
H1198       H  0.24400383  0.41611772  0.05188518     0.28400
H1199       H  0.18986454  0.40751065  0.03174852     0.19000
H1200       H  0.23744083  0.43537829  0.42318249     0.19000
C1201       C  0.13640014  0.23944165  0.35776169    -0.06800
C1202       C  0.11926840  0.22338071  0.37608293    -0.17900
C1203       C  0.10043730  0.22265727  0.37670254     0.10400
C1204       C  0.09859816  0.23860226  0.35931535    -0.06700
C1205       C  0.11533642  0.25391904  0.33876751    -0.17900
C1206       C  0.13419167  0.25471592  0.33830743     0.10400
S1207       S  0.07942243  0.20093690  0.40003545    -0.32900
S1208       S  0.15521504  0.27680217  0.31593870    -0.32900
H1209       H  0.16812529  0.28123651  0.34845576     0.28500
H1210       H  0.06455180  0.19993864  0.37409194     0.28400
H1211       H  0.12058056  0.21132645  0.39037423     0.19000
H1212       H  0.11422912  0.26629544  0.32540119     0.19000
C1213       C  0.01735650  0.23220808  0.48553795    -0.06800
C1214       C  0.00744322  0.21149299  0.49591417    -0.17900
C1215       C  0.99605303  0.20654512  0.03082509     0.10400
C1216       C  0.98875287  0.21866407  0.04778004    -0.06700
C1217       C  0.99523411  0.23815258  0.03231561    -0.17900
C1218       C  0.01492976  0.24604230  0.50944392     0.10400
S1219       S  0.99014778  0.18197342  0.04969514    -0.32900
S1220       S  0.02894807  0.27330416  0.50207311    -0.32900
H1221       H  0.04728966  0.27412543  0.49153593     0.28500
H1222       H  0.99300557  0.18827302  0.08895064     0.28400
H1223       H  0.00963807  0.20083210  0.47845300     0.19000
H1224       H  0.98988886  0.24769534  0.04510953     0.19000
C1225       C  0.97979876  0.21337290  0.23548258    -0.06800
C1226       C  0.98527914  0.23221262  0.25293040    -0.17900
C1227       C  0.99875349  0.23961319  0.28464319     0.10400
C1228       C  0.00773008  0.22836568  0.29870220    -0.06700
C1229       C  0.00155642  0.20912072  0.28238658    -0.17900
C1230       C  0.98751106  0.20139833  0.25154396     0.10400
S1231       S  0.00314672  0.26306825  0.30672939    -0.32900
S1232       S  0.97953307  0.17590254  0.23502290    -0.32900
H1233       H  0.95902633  0.17045114  0.22922251     0.28500
H1234       H  0.00302270  0.25655657  0.34526746     0.28400
H1235       H  0.97910014  0.24135745  0.24165741     0.19000
H1236       H  0.00780697  0.20002662  0.29357752     0.19000
C1237       C  0.08954025  0.31157140  0.41539736    -0.06800
C1238       C  0.09445088  0.31613196  0.45504091    -0.17900
C1239       C  0.10547155  0.33632748  0.46816244     0.10400
C1240       C  0.11091086  0.35249343  0.44144021    -0.06700
C1241       C  0.10677755  0.34792728  0.40161050    -0.17900
C1242       C  0.09666103  0.32777897  0.38826211     0.10400
S1243       S  0.10415381  0.34129576  0.02213684    -0.32900
S1244       S  0.09415342  0.32390936  0.33622177    -0.32900
H1245       H  0.09822016  0.30771483  0.33664145     0.28500
H1246       H  0.12479081  0.35674955  0.02042726     0.28400
H1247       H  0.08966256  0.30386897  0.47607435     0.19000
H1248       H  0.11146100  0.36015712  0.38053675     0.19000
C1249       C  0.90429533  0.43205251  0.30112848    -0.06800
C1250       C  0.89200316  0.43497998  0.27425541    -0.17900
C1251       C  0.89174084  0.45331631  0.27278447     0.10400
C1252       C  0.90404790  0.46936636  0.29879568    -0.06700
C1253       C  0.91517458  0.46584022  0.32750647    -0.17900
C1254       C  0.91517868  0.44737677  0.32936643     0.10400
S1255       S  0.87530637  0.45515455  0.23713226    -0.32900
S1256       S  0.92916567  0.44434502  0.36882200    -0.32900
H1257       H  0.91460651  0.42368737  0.37537334     0.28500
H1258       H  0.89180743  0.46892111  0.21377485     0.28400
H1259       H  0.88317547  0.42324592  0.25294909     0.19000
H1260       H  0.92426451  0.47769183  0.34843256     0.19000
C1261       C  0.88869465  0.34517579  0.18532622    -0.06800
C1262       C  0.89457992  0.35344729  0.14771873    -0.17900
C1263       C  0.88855173  0.34089739  0.11466536     0.10400
C1264       C  0.87663415  0.31948721  0.11918906    -0.06700
C1265       C  0.86977191  0.31133820  0.15657733    -0.17900
C1266       C  0.87550398  0.32390111  0.18953643     0.10400
S1267       S  0.89630487  0.35316986  0.06766899    -0.32900
S1268       S  0.86527406  0.31182131  0.23594489    -0.32900
H1269       H  0.86342249  0.32803410  0.25127545     0.28500
H1270       H  0.87826256  0.33915096  0.04828351     0.28400
H1271       H  0.90434281  0.36978404  0.14407197     0.19000
H1272       H  0.86026450  0.29497489  0.16033491     0.19000
C1273       C  0.89334262  0.34401094  0.37447946    -0.06800
C1274       C  0.90613628  0.33684056  0.38795773    -0.17900
C1275       C  0.90053886  0.32317227  0.41915449     0.10400
C1276       C  0.88126936  0.31568273  0.43699805    -0.06700
C1277       C  0.86837440  0.32270022  0.42359685    -0.17900
C1278       C  0.87422564  0.33687175  0.39304889     0.10400
S1279       S  0.91928992  0.31696845  0.43612614    -0.32900
S1280       S  0.85668442  0.34535723  0.38000878    -0.32900
H1281       H  0.87141553  0.36616589  0.38390443     0.28500
H1282       H  0.91550331  0.32893952  0.98781621     0.28400
H1283       H  0.92093414  0.34223007  0.37460874     0.19000
H1284       H  0.85367795  0.31730828  0.43741259     0.19000
C1285       C  0.09505731  0.52469645  0.21555593    -0.06800
C1286       C  0.09772251  0.53522080  0.25068547    -0.17900
C1287       C  0.09695070  0.55325589  0.25195912     0.10400
C1288       C  0.09325552  0.56107549  0.21722528    -0.06700
C1289       C  0.09242458  0.55145966  0.18164693    -0.17900
C1290       C  0.09369558  0.53367368  0.18038208     0.10400
S1291       S  0.10004234  0.56489671  0.29914350    -0.32900
S1292       S  0.09391814  0.52346205  0.13302065    -0.32900
H1293       H  0.10712000  0.51631607  0.14403448     0.28500
H1294       H  0.07987867  0.56114971  0.29973318     0.28400
H1295       H  0.09930257  0.52878316  0.27782252     0.19000
H1296       H  0.09055211  0.55769236  0.15451247     0.19000
C1297       C  0.10589358  0.45201222  0.32217436    -0.06800
C1298       C  0.09203158  0.44035099  0.35170703    -0.17900
C1299       C  0.09819654  0.43394819  0.38452560     0.10400
C1300       C  0.11856016  0.43823645  0.38739971    -0.06700
C1301       C  0.13263920  0.45041575  0.35863121    -0.17900
C1302       C  0.12667927  0.45773588  0.32666151     0.10400
S1303       S  0.07947396  0.42118428  0.42236715    -0.32900
S1304       S  0.14638056  0.47426115  0.29308432    -0.32900
H1305       H  0.14113590  0.48961506  0.29512413     0.28500
H1306       H  0.09318223  0.43144896  0.45311237     0.28400
H1307       H  0.07618014  0.43633549  0.34961234     0.19000
H1308       H  0.14841521  0.45418387  0.36089181     0.19000
C1309       C  0.10357281  0.44553354  0.13407857    -0.06800
C1310       C  0.10742517  0.45596889  0.09845365    -0.17900
C1311       C  0.11423723  0.45001459  0.06589397     0.10400
C1312       C  0.11773857  0.43342156  0.06895755    -0.06700
C1313       C  0.11390450  0.42295915  0.10457477    -0.17900
C1314       C  0.10727080  0.42906530  0.13730690     0.10400
S1315       S  0.11705139  0.46354916  0.02088910    -0.32900
S1316       S  0.10513711  0.41610742  0.18272511    -0.32900
H1317       H  0.11346056  0.43391219  0.20565275     0.28500
H1318       H  0.12976161  0.46132676  0.50665123     0.28400
H1319       H  0.10451802  0.46852961  0.09556248     0.19000
H1320       H  0.11677699  0.41037141  0.10730416     0.19000
C1321       C  0.97651361  0.41489221  0.25578241    -0.06800
C1322       C  0.98332989  0.41463740  0.21775559    -0.17900
C1323       C  0.00418725  0.42497403  0.20854961     0.10400
C1324       C  0.01874884  0.43539223  0.23824835    -0.06700
C1325       C  0.01183861  0.43580048  0.27608115    -0.17900
C1326       C  0.99107137  0.42611265  0.28495389     0.10400
S1327       S  0.01105345  0.42494648  0.15824730    -0.32900
S1328       S  0.98430504  0.42967091  0.33356434    -0.32900
H1329       H  0.96864767  0.43320707  0.32112477     0.28500
H1330       H  0.02573456  0.44588232  0.15766054     0.28400
H1331       H  0.97232213  0.40642309  0.19491850     0.19000
H1332       H  0.02273361  0.44397182  0.29911146     0.19000
In1333     In  0.08487707  0.46875267  0.72273262     1.36900
C1334       C  0.04499746  0.45302700  0.73091350     0.76900
O1335       O  0.08030860  0.45016211  0.77636727    -0.61500
O1336       O  0.11000369  0.47441600  0.76502521    -0.52400
C1337       C  0.09866804  0.45422952  0.66722537     0.69600
O1338       O  0.08276206  0.44305632  0.68656782    -0.47300
C1339       C  0.09396400  0.50692556  0.70856190     0.74300
O1340       O  0.05263815  0.44852724  0.70256636    -0.59200
O1341       O  0.10051586  0.50192447  0.73795303    -0.49200
O1342       O  0.05789693  0.46576053  0.75448909    -0.55600
C1343       C  0.09861409  0.45987879  0.78731257     0.84500
O1344       O  0.10731106  0.47284838  0.67619030    -0.57500
O1345       O  0.08331748  0.49234846  0.68575264    -0.60800
In1346     In  0.91896810  0.38837147  0.78114686     1.36900
C1347       C  0.95869233  0.40975402  0.76494345     0.76900
O1348       O  0.91316313  0.36018053  0.74928609    -0.61500
O1349       O  0.90342866  0.37916905  0.72276354    -0.52400
C1350       C  0.90355374  0.36227385  0.84104618     0.69600
O1351       O  0.92229377  0.37221045  0.83287589    -0.47300
C1352       C  0.91076328  0.41820300  0.79527838     0.74300
O1353       O  0.95180968  0.40122019  0.79738357    -0.59200
O1354       O  0.90006081  0.40340838  0.77295762    -0.49200
O1355       O  0.94514662  0.40673735  0.74023194    -0.55600
C1356       C  0.90426981  0.36299750  0.72094052     0.84500
O1357       O  0.89268547  0.36618200  0.81887351    -0.57500
O1358       O  0.92504685  0.41713048  0.81165627    -0.60800
In1359     In  0.05365230  0.25201367  0.88687145     1.36900
C1360       C  0.07632843  0.29119028  0.90524210     0.76900
O1361       O  0.02997139  0.25304378  0.92417864    -0.61500
O1362       O  0.03960463  0.23208104  0.93929681    -0.52400
C1363       C  0.02696673  0.23649122  0.82871142     0.69600
O1364       O  0.03804901  0.25533556  0.83484845    -0.47300
C1365       C  0.08387499  0.24488953  0.87131001     0.74300
O1366       O  0.06620884  0.28528354  0.87399774    -0.59200
O1367       O  0.07200709  0.23686075  0.89990816    -0.49200
O1368       O  0.07471690  0.27699445  0.92685893    -0.55600
C1369       C  0.02859221  0.23966011  0.94778820     0.84500
O1370       O  0.03023471  0.22533485  0.85144805    -0.57500
O1371       O  0.07954569  0.25567760  0.84984238    -0.60800
In1372     In  0.13726085  0.41465030  0.97349188     1.36900
C1373       C  0.12005657  0.37543777  0.95455138     0.76900
O1374       O  0.11328610  0.41264660  0.93273213    -0.61500
O1375       O  0.14177162  0.44007058  0.93360281    -0.52400
C1376       C  0.12622425  0.42618747  0.53655721     0.69600
O1377       O  0.11523639  0.40866088  0.52235634    -0.47300
C1378       C  0.17598367  0.42359053  0.97895036     0.74300
O1379       O  0.11622547  0.38143007  0.98606740    -0.59200
O1380       O  0.16847453  0.42652195  0.94863389    -0.49200
O1381       O  0.13272411  0.38960522  0.93289021    -0.55600
C1382       C  0.12408608  0.43039228  0.91924561     0.84500
O1383       O  0.13837977  0.43911246  0.01186965    -0.57500
O1384       O  0.16112644  0.40880019  0.50363745    -0.60800
In1385     In  0.94673359  0.19903850  0.63602529     1.36900
C1386       C  0.92958141  0.22068406  0.61315648     0.76900
O1387       O  0.97654112  0.22211132  0.60957356    -0.61500
O1388       O  0.95945895  0.19338728  0.58163793    -0.52400
C1389       C  0.96917484  0.20695002  0.70076712     0.69600
O1390       O  0.96055527  0.21676199  0.69069415    -0.47300
C1391       C  0.91505271  0.16104876  0.64146057     0.74300
O1392       O  0.93336925  0.21915333  0.64844630    -0.59200
O1393       O  0.93106712  0.16542015  0.62291328    -0.49200
O1394       O  0.93407633  0.21066873  0.58996786    -0.55600
C1395       C  0.97532826  0.21077549  0.58156634     0.84500
O1396       O  0.96561395  0.19243745  0.67816733    -0.57500
O1397       O  0.91568929  0.17600351  0.65881393    -0.60800
In1398     In  0.86615737  0.27946998  0.53556055     1.36900
C1399       C  0.88754980  0.26273228  0.56214189     0.76900
O1400       O  0.88750569  0.30952859  0.56354874    -0.61500
O1401       O  0.85931240  0.29006766  0.59164449    -0.52400
C1402       C  0.87502538  0.30243277  0.96631649     0.69600
O1403       O  0.88448584  0.29363424  0.97748539    -0.47300
C1404       C  0.82858437  0.24836423  0.52425330     0.74300
O1405       O  0.89283261  0.27417046  0.53252485    -0.59200
O1406       O  0.83230766  0.26428249  0.54249556    -0.49200
O1407       O  0.87117066  0.25965981  0.57752270    -0.55600
C1408       C  0.87592074  0.30679825  0.59205052     0.84500
O1409       O  0.86302056  0.30163817  0.49686159    -0.57500
O1410       O  0.84408853  0.24903072  0.50923692    -0.60800
In1411     In  0.86129952  0.58437473  0.53771163     1.36900
C1412       C  0.87960267  0.62258364  0.56413780     0.76900
O1413       O  0.83934735  0.59279676  0.51207924    -0.61500
O1414       O  0.82697704  0.56477055  0.54219335    -0.52400
C1415       C  0.87593877  0.57206494  0.97564977     0.69600
O1416       O  0.87982183  0.59014953  0.98023193    -0.47300
C1417       C  0.87408287  0.57088117  0.59652815     0.74300
O1418       O  0.88330747  0.61802191  0.53084597    -0.59200
O1419       O  0.85557675  0.56583263  0.59230195    -0.49200
O1420       O  0.86654438  0.60749702  0.58343832    -0.55600
C1421       C  0.82348705  0.57718943  0.52403028     0.84500
O1422       O  0.85915547  0.55903427  0.49995227    -0.57500
O1423       O  0.88565817  0.58189074  0.56949327    -0.60800
In1424     In  0.94122204  0.74407874  0.64648441     1.36900
C1425       C  0.92212216  0.70573018  0.62111371     0.76900
O1426       O  0.91132960  0.73725478  0.67260860    -0.61500
O1427       O  0.92462734  0.76079827  0.63055652    -0.52400
C1428       C  0.96332662  0.75612698  0.71200899     0.69600
O1429       O  0.95653469  0.73877141  0.69701114    -0.47300
C1430       C  0.97112186  0.76181460  0.59429844     0.74300
O1431       O  0.92456991  0.71019744  0.65687803    -0.59200
O1432       O  0.95712286  0.76613969  0.59728042    -0.49200
O1433       O  0.92887077  0.72085497  0.59849915    -0.55600
C1434       C  0.90966471  0.75035721  0.65278086     0.84500
O1435       O  0.95824822  0.76736577  0.69377552    -0.57500
O1436       O  0.96976452  0.74861192  0.61839517    -0.60800
In1437     In  0.13073237  0.71456269  0.96785076     1.36900
C1438       C  0.11001649  0.73410135  0.95785370     0.76900
O1439       O  0.15728932  0.73802281  0.00294698    -0.61500
O1440       O  0.16217781  0.73456393  0.94349296    -0.52400
C1441       C  0.12957544  0.69194805  0.52386694     0.69600
O1442       O  0.12880438  0.70808083  0.52724458    -0.47300
C1443       C  0.12065037  0.69170883  0.90391007     0.74300
O1444       O  0.10272117  0.71739926  0.97604336    -0.59200
O1445       O  0.13780292  0.69877670  0.92028050    -0.49200
O1446       O  0.12805324  0.74100283  0.94614156    -0.55600
C1447       C  0.16972726  0.74400977  0.97491061     0.84500
O1448       O  0.12717582  0.68576277  0.99436270    -0.57500
O1449       O  0.10856326  0.69603735  0.92085792    -0.60800
In1450     In  0.04724594  0.79616997  0.89992543     1.36900
C1451       C  0.06758702  0.77733993  0.91948668     0.76900
O1452       O  0.07417754  0.81606006  0.86226230    -0.61500
O1453       O  0.06697554  0.83002785  0.90824487    -0.52400
C1454       C  0.02131702  0.78582383  0.83998825     0.69600
O1455       O  0.03081103  0.77668635  0.84850281    -0.47300
C1456       C  0.02413476  0.78674884  0.96352936     0.74300
O1457       O  0.05386320  0.77060853  0.89370324    -0.59200
O1458       O  0.03494571  0.80494119  0.95203535    -0.49200
O1459       O  0.07090957  0.79373881  0.93534806    -0.55600
C1460       C  0.07900977  0.83223632  0.88080566     0.84500
O1461       O  0.02525753  0.80064893  0.86210062    -0.57500
O1462       O  0.02439897  0.77373026  0.94125699    -0.60800
In1463     In  0.91803950  0.53248485  0.78520529     1.36900
C1464       C  0.95762106  0.55046916  0.76966926     0.76900
O1465       O  0.91809110  0.50709622  0.81913469    -0.61500
O1466       O  0.90619387  0.50080067  0.76200250    -0.52400
C1467       C  0.90363922  0.54354954  0.84558675     0.69600
O1468       O  0.92206628  0.55312885  0.83520069    -0.47300
C1469       C  0.90272173  0.54422785  0.72792698     0.74300
O1470       O  0.95087933  0.54873372  0.80393595    -0.59200
O1471       O  0.89432288  0.52600483  0.73977114    -0.49200
O1472       O  0.94407457  0.54300174  0.74364898    -0.55600
C1473       C  0.91046015  0.49416237  0.79207340     0.84500
O1474       O  0.89249860  0.52816215  0.82489364    -0.57500
O1475       O  0.91893498  0.55635745  0.74568379    -0.60800
In1476     In  0.08300686  0.61112069  0.71259378     1.36900
C1477       C  0.04330284  0.59227382  0.72895383     0.76900
O1478       O  0.07862374  0.58223772  0.68569944    -0.61500
O1479       O  0.10202552  0.59711061  0.72754119    -0.52400
C1480       C  0.10022421  0.63474885  0.65068253     0.69600
O1481       O  0.08257431  0.61933295  0.64982853    -0.47300
C1482       C  0.09607997  0.63711220  0.77166062     0.74300
O1483       O  0.05104434  0.60355626  0.69954894    -0.59200
O1484       O  0.10016060  0.62297683  0.76822686    -0.49200
O1485       O  0.05603328  0.59046878  0.74972430    -0.55600
C1486       C  0.09237831  0.58187890  0.70567428     0.84500
O1487       O  0.10908320  0.63787761  0.68309958    -0.57500
O1488       O  0.08478875  0.63754664  0.74500397    -0.60800
In1489     In  0.60574995  0.52545419  0.78511477     1.36900
C1490       C  0.58531106  0.54384183  0.76319068     0.76900
O1491       O  0.63201950  0.54946442  0.75110555    -0.61500
O1492       O  0.61822210  0.51892590  0.73098685    -0.52400
C1493       C  0.63044888  0.53543826  0.84660418     0.69600
O1494       O  0.62039210  0.54406380  0.83854216    -0.47300
C1495       C  0.57562612  0.48757908  0.79907085     0.74300
O1496       O  0.59341606  0.54637140  0.79639017    -0.59200
O1497       O  0.58997804  0.49171397  0.77559583    -0.49200
O1498       O  0.58735668  0.53158581  0.74145398    -0.55600
C1499       C  0.63144450  0.53739033  0.72521302     0.84500
O1500       O  0.62776118  0.52149659  0.82318280    -0.57500
O1501       O  0.57706686  0.50288083  0.81644842    -0.60800
In1502     In  0.52877935  0.61031370  0.69049416     1.36900
C1503       C  0.54790850  0.59019368  0.71123686     0.76900
O1504       O  0.54957688  0.63971544  0.72057696    -0.61500
O1505       O  0.52072014  0.62024809  0.74627773    -0.52400
C1506       C  0.54045716  0.63513606  0.62874403     0.69600
O1507       O  0.55184541  0.62995586  0.64585099    -0.47300
C1508       C  0.49068893  0.57988512  0.67872188     0.74300
O1509       O  0.54572311  0.59378080  0.67620418    -0.59200
O1510       O  0.49484156  0.59524458  0.69945376    -0.49200
O1511       O  0.54013514  0.59683401  0.73541514    -0.55600
C1512       C  0.53741499  0.63690602  0.74805951     0.84500
O1513       O  0.52276394  0.62727209  0.64303401    -0.57500
O1514       O  0.50602629  0.58058298  0.66289413    -0.60800
In1515     In  0.71411473  0.58043229  0.53667499     1.36900
C1516       C  0.73160693  0.61944139  0.55787434     0.76900
O1517       O  0.68791672  0.57812240  0.57075795    -0.61500
O1518       O  0.69973334  0.55916545  0.58769352    -0.52400
C1519       C  0.69007603  0.56427967  0.97135341     0.69600
O1520       O  0.70283912  0.58285742  0.97671967    -0.47300
C1521       C  0.74590187  0.57460096  0.52710812     0.74300
O1522       O  0.72065362  0.61253267  0.52782150    -0.59200
O1523       O  0.73154293  0.56430857  0.55054172    -0.49200
O1524       O  0.73368506  0.60635255  0.57689535    -0.55600
C1525       C  0.68681277  0.56467842  0.59392462     0.84500
O1526       O  0.68998856  0.55467997  0.50044279    -0.57500
O1527       O  0.74350761  0.58737950  0.50775821    -0.60800
In1528     In  0.79667408  0.74441350  0.61827111     1.36900
C1529       C  0.77544992  0.70515874  0.59786510     0.76900
O1530       O  0.77688447  0.75373880  0.58642310    -0.61500
O1531       O  0.80565554  0.76212724  0.56175054    -0.52400
C1532       C  0.78574045  0.75982712  0.67690428     0.69600
O1533       O  0.77518598  0.74161945  0.66556462    -0.47300
C1534       C  0.83292703  0.74888451  0.63713846     0.74300
O1535       O  0.77416755  0.71151383  0.63107230    -0.59200
O1536       O  0.83085780  0.75957472  0.61132279    -0.49200
O1537       O  0.78792866  0.71890088  0.57531929    -0.55600
C1538       C  0.78938250  0.76276356  0.55919806     0.84500
O1539       O  0.80252699  0.77003402  0.65922518    -0.57500
O1540       O  0.81661624  0.73688655  0.65458987    -0.60800
In1541     In  0.74808106  0.79979476  0.87277562     1.36900
C1542       C  0.70844302  0.77665370  0.88979367     0.76900
O1543       O  0.76271920  0.78238987  0.89596293    -0.61500
O1544       O  0.76097581  0.80367248  0.93333561    -0.52400
C1545       C  0.76069893  0.78999799  0.80821439     0.69600
O1546       O  0.74368176  0.77844840  0.82401127    -0.47300
C1547       C  0.75454334  0.83788203  0.86612620     0.74300
O1548       O  0.71510879  0.78141091  0.85546606    -0.59200
O1549       O  0.76731285  0.83400853  0.88154869    -0.49200
O1550       O  0.72214620  0.78397714  0.91558604    -0.55600
C1551       C  0.76639396  0.79052292  0.92921644     0.84500
O1552       O  0.77102252  0.80707412  0.82478858    -0.57500
O1553       O  0.73905376  0.82239199  0.85273990    -0.60800
In1554     In  0.58214642  0.71558796  0.94086417     1.36900
C1555       C  0.62208400  0.73326926  0.92647176     0.76900
O1556       O  0.56737067  0.68479627  0.91256744    -0.61500
O1557       O  0.57115232  0.70991209  0.87877066    -0.52400
C1558       C  0.56807853  0.69425845  0.50275239     0.69600
O1559       O  0.58566544  0.70126143  0.48841818    -0.47300
C1560       C  0.57540314  0.74666563  0.95243006     0.74300
O1561       O  0.61466461  0.72919498  0.96037519    -0.59200
O1562       O  0.56286513  0.73052380  0.93506819    -0.49200
O1563       O  0.60890907  0.72761733  0.89975994    -0.55600
C1564       C  0.56472213  0.69100458  0.88022107     0.84500
O1565       O  0.55794472  0.69735335  0.98558444    -0.57500
O1566       O  0.58938024  0.74838525  0.46687350    -0.60800
In1567     In  0.46380049  0.37793373  0.78943079     1.36900
C1568       C  0.44405342  0.39710880  0.76792134     0.76900
O1569       O  0.48531713  0.40834652  0.81642257    -0.61500
O1570       O  0.49761410  0.39437723  0.78071479    -0.52400
C1571       C  0.45240862  0.35278186  0.85077897     0.69600
O1572       O  0.44268064  0.36105924  0.83851963    -0.47300
C1573       C  0.45419563  0.35222228  0.73012102     0.74300
O1574       O  0.44278971  0.38995868  0.80170546    -0.59200
O1575       O  0.47207404  0.36681676  0.73540873    -0.49200
O1576       O  0.45575177  0.39466859  0.74531204    -0.55600
C1577       C  0.50085257  0.40994939  0.79967956     0.84500
O1578       O  0.46900525  0.35842132  0.83310304    -0.57500
O1579       O  0.44151150  0.35054837  0.75564045    -0.60800
In1580     In  0.38663065  0.46450297  0.70694430     1.36900
C1581       C  0.40412079  0.44283994  0.72761051     0.76900
O1582       O  0.41645177  0.48696749  0.67832923    -0.61500
O1583       O  0.40060762  0.49855818  0.70986641    -0.52400
C1584       C  0.36076356  0.45161077  0.64726954     0.69600
O1585       O  0.36959140  0.44231457  0.65927315    -0.47300
C1586       C  0.36162231  0.45729580  0.76677740     0.74300
O1587       O  0.39817992  0.44306906  0.69334643    -0.59200
O1588       O  0.38007099  0.47126878  0.76725178    -0.49200
O1589       O  0.40154718  0.45417329  0.75093172    -0.55600
C1590       C  0.41637709  0.50253790  0.69091181     0.84500
O1591       O  0.36601118  0.46818316  0.66472507    -0.57500
O1592       O  0.35612937  0.44685913  0.73596727    -0.60800
In1593     In  0.19691356  0.25005568  0.86959033     1.36900
C1594       C  0.21666323  0.28990317  0.88688082     0.76900
O1595       O  0.17423818  0.25518626  0.83668064    -0.61500
O1596       O  0.16505416  0.23846656  0.88975343    -0.52400
C1597       C  0.20567359  0.23398646  0.80800009     0.69600
O1598       O  0.21822621  0.25082772  0.82327516    -0.47300
C1599       C  0.20509414  0.23305513  0.92957075     0.74300
O1600       O  0.21957761  0.28299979  0.85552256    -0.59200
O1601       O  0.18796456  0.22445319  0.91291946    -0.49200
O1602       O  0.20355665  0.27631081  0.90890924    -0.55600
C1603       C  0.16040645  0.24624111  0.86194786     0.84500
O1604       O  0.18837164  0.22557934  0.82388694    -0.57500
O1605       O  0.21812067  0.24960423  0.91414638    -0.60800
In1606     In  0.28087753  0.41418819  0.95618440     1.36900
C1607       C  0.26055730  0.37483397  0.93574664     0.76900
O1608       O  0.25147790  0.40650371  0.98516522    -0.61500
O1609       O  0.26567355  0.43299806  0.94985907    -0.52400
C1610       C  0.30380565  0.42252193  0.51826092     0.69600
O1611       O  0.29916761  0.40586085  0.50181516    -0.47300
C1612       C  0.30741160  0.43205445  0.89850946     0.74300
O1613       O  0.26648443  0.38066392  0.97016409    -0.59200
O1614       O  0.29048181  0.43145391  0.89950582    -0.49200
O1615       O  0.26539329  0.38918138  0.91181413    -0.55600
C1616       C  0.25072143  0.42150886  0.97134922     0.84500
O1617       O  0.29769548  0.43781001  0.00278672    -0.57500
O1618       O  0.31059956  0.42349809  0.92694454    -0.60800
In1619     In  0.40914328  0.27040643  0.54157341     1.36900
C1620       C  0.36908998  0.25194692  0.55741006     0.76900
O1621       O  0.40370694  0.24061488  0.51685225    -0.61500
O1622       O  0.42726410  0.25532472  0.55843705    -0.52400
C1623       C  0.42271852  0.29619482  0.98086702     0.69600
O1624       O  0.40567410  0.29116988  0.99601245    -0.47300
C1625       C  0.42582823  0.29590540  0.60115259     0.74300
O1626       O  0.37579630  0.25114064  0.52420639    -0.59200
O1627       O  0.42109086  0.27740216  0.60280645    -0.49200
O1628       O  0.38283543  0.26237984  0.58167265    -0.55600
C1629       C  0.41712111  0.23984911  0.53728852     0.84500
O1630       O  0.43356004  0.28775426  0.49645614    -0.57500
O1631       O  0.42268186  0.30149478  0.56848507    -0.60800
In1632     In  0.24440783  0.18760450  0.62217964     1.36900
C1633       C  0.28372015  0.20551806  0.60192301     0.76900
O1634       O  0.24504990  0.16458366  0.66334935    -0.61500
O1635       O  0.23143961  0.15444935  0.60811005    -0.52400
C1636       C  0.23134233  0.20134535  0.68064754     0.69600
O1637       O  0.24969090  0.20615579  0.67597730    -0.47300
C1638       C  0.23004608  0.19865099  0.56134689     0.74300
O1639       O  0.27744595  0.21044340  0.63174994    -0.59200
O1640       O  0.22125289  0.18058899  0.57423409    -0.49200
O1641       O  0.26974858  0.19097964  0.58296207    -0.55600
C1642       C  0.23658698  0.14989605  0.63979342     0.84500
O1643       O  0.21925415  0.18845523  0.65624781    -0.57500
O1644       O  0.24574831  0.21083609  0.58031033    -0.60800
In1645     In  0.72129482  0.13439605  0.53784358     1.36900
C1646       C  0.74270153  0.11657001  0.55739285     0.76900
O1647       O  0.74946646  0.15660139  0.50503111    -0.61500
O1648       O  0.73860190  0.16811363  0.54925361    -0.52400
C1649       C  0.69420184  0.12196049  0.97311968     0.69600
O1650       O  0.70105992  0.11106092  0.98623198    -0.47300
C1651       C  0.69537478  0.12336818  0.59754573     0.74300
O1652       O  0.73566649  0.11542348  0.52353773    -0.59200
O1653       O  0.70823752  0.14180231  0.59041211    -0.49200
O1654       O  0.73886405  0.12694007  0.58101654    -0.55600
C1655       C  0.75217984  0.17200180  0.52397602     0.84500
O1656       O  0.70188459  0.14047983  0.49634883    -0.57500
O1657       O  0.69539686  0.11085065  0.57341794    -0.60800
In1658     In  0.80204490  0.05240044  0.62829702     1.36900
C1659       C  0.78286605  0.07229559  0.60640250     0.76900
O1660       O  0.82410313  0.08148542  0.65869649    -0.61500
O1661       O  0.83598702  0.06920467  0.61799636    -0.52400
C1662       C  0.79043491  0.02771410  0.69036379     0.69600
O1663       O  0.77898599  0.03288259  0.67338716    -0.47300
C1664       C  0.79358642  0.02559485  0.57116868     0.74300
O1665       O  0.78473505  0.06848434  0.64142172    -0.59200
O1666       O  0.81071599  0.04168983  0.57427055    -0.49200
O1667       O  0.79119115  0.06615318  0.58243928    -0.55600
C1668       C  0.83964559  0.08357943  0.64118259     0.84500
O1669       O  0.80806784  0.03545858  0.67583095    -0.57500
O1670       O  0.78095598  0.02322415  0.59743741    -0.60800
In1671     In  0.74678165  0.94470283  0.87941874     1.36900
C1672       C  0.70713723  0.92572715  0.89701184     0.76900
O1673       O  0.73890954  0.91452789  0.85338971    -0.61500
O1674       O  0.76570853  0.92934969  0.88716440    -0.52400
C1675       C  0.76033193  0.96886769  0.81675644     0.69600
O1676       O  0.74239150  0.96112848  0.82953016    -0.47300
C1677       C  0.76374701  0.97097060  0.93783721     0.74300
O1678       O  0.71383312  0.92975274  0.86262144    -0.59200
O1679       O  0.76166403  0.95336511  0.93825582    -0.49200
O1680       O  0.72083742  0.93180887  0.92275704    -0.55600
C1681       C  0.75391321  0.91386534  0.86722888     0.84500
O1682       O  0.77150430  0.96411790  0.83613168    -0.57500
O1683       O  0.75687472  0.97495527  0.90767653    -0.60800
In1684     In  0.58186970  0.86035070  0.95509050     1.36900
C1685       C  0.62138032  0.88366826  0.93688914     0.76900
O1686       O  0.58924650  0.83733413  0.97964397    -0.61500
O1687       O  0.56290083  0.82636655  0.94464316    -0.52400
C1688       C  0.57094886  0.87470042  0.51769249     0.69600
O1689       O  0.58913743  0.88465349  0.50618973    -0.47300
C1690       C  0.56029711  0.86444752  0.89798894     0.74300
O1691       O  0.61510146  0.87910644  0.97146562    -0.59200
O1692       O  0.57190310  0.85725372  0.89265397    -0.49200
O1693       O  0.60742476  0.87634178  0.91171666    -0.55600
C1694       C  0.57442616  0.82210505  0.96391361     0.84500
O1695       O  0.55968654  0.85914040  0.49741834    -0.57500
O1696       O  0.55936449  0.86904462  0.93296389    -0.60800
In1697     In  0.52884971  0.91318892  0.70877552     1.36900
C1698       C  0.54973720  0.95343692  0.72234885     0.76900
O1699       O  0.50241389  0.91335771  0.67996750    -0.61500
O1700       O  0.49728319  0.89779369  0.73371024    -0.52400
C1701       C  0.54135188  0.90256732  0.64508109     0.69600
O1702       O  0.55309996  0.91780120  0.66562718    -0.47300
C1703       C  0.53304171  0.89369265  0.76969015     0.74300
O1704       O  0.55551642  0.94138015  0.73392652    -0.59200
O1705       O  0.53075418  0.88689799  0.73532579    -0.49200
O1706       O  0.53394725  0.94506089  0.70136194    -0.55600
C1707       C  0.48983688  0.90311830  0.70636910     0.84500
O1708       O  0.52324675  0.89293893  0.65712909    -0.57500
O1709       O  0.53303880  0.91025521  0.77232400    -0.60800
In1710     In  0.61088377  0.07912516  0.78371390     1.36900
C1711       C  0.58962555  0.03951875  0.76357650     0.76900
O1712       O  0.58720877  0.07991030  0.82225306    -0.61500
O1713       O  0.59023748  0.09086932  0.76464215    -0.52400
C1714       C  0.63686997  0.09386656  0.84395472     0.69600
O1715       O  0.62656491  0.07510073  0.83590386    -0.47300
C1716       C  0.63873944  0.09576672  0.72735863     0.74300
O1717       O  0.59660911  0.04557555  0.79740388    -0.59200
O1718       O  0.62667875  0.10210578  0.73571752    -0.49200
O1719       O  0.59332034  0.05379696  0.74021970    -0.55600
C1720       C  0.58104257  0.08754914  0.79675955     0.84500
O1721       O  0.63329839  0.10502947  0.82186320    -0.57500
O1722       O  0.63645895  0.08103626  0.74819278    -0.60800
In1723     In  0.38400777  0.91060224  0.72834685     1.36900
C1724       C  0.40431265  0.95041940  0.74387756     0.76900
O1725       O  0.36278600  0.91282444  0.77020337    -0.61500
O1726       O  0.36762539  0.88776878  0.77601964    -0.52400
C1727       C  0.36011390  0.89543676  0.66608318     0.69600
O1728       O  0.37557378  0.91309649  0.66674317    -0.47300
C1729       C  0.41349569  0.90161629  0.72034068     0.74300
O1730       O  0.38841190  0.94214213  0.72319384    -0.59200
O1731       O  0.40398773  0.89918984  0.75184467    -0.49200
O1732       O  0.41027947  0.93847472  0.75514895    -0.55600
C1733       C  0.35898630  0.89705627  0.78914883     0.84500
O1734       O  0.35703095  0.88537789  0.69714018    -0.57500
O1735       O  0.40709290  0.90773229  0.69241453    -0.60800
In1736     In  0.46566730  0.07578992  0.80013340     1.36900
C1737       C  0.44709090  0.03594971  0.78466333     0.76900
O1738       O  0.44118288  0.07343108  0.76062079    -0.61500
O1739       O  0.47175600  0.09638356  0.74881431    -0.52400
C1740       C  0.45594613  0.09134346  0.86109598     0.69600
O1741       O  0.45585561  0.07469706  0.86270497    -0.47300
C1742       C  0.50484591  0.08649359  0.80930184     0.74300
O1743       O  0.43988240  0.04357358  0.80796360    -0.59200
O1744       O  0.49880082  0.09348193  0.78228609    -0.49200
O1745       O  0.46372905  0.04874661  0.76908770    -0.55600
C1746       C  0.45318327  0.08832663  0.73954443     0.84500
O1747       O  0.46157533  0.10025246  0.82867960    -0.57500
O1748       O  0.49087490  0.07481449  0.83234225    -0.60800
In1749     In  0.41105331  0.12667326  0.54802803     1.36900
C1750       C  0.37204621  0.10675055  0.56922490     0.76900
O1751       O  0.41201065  0.10244413  0.58324962    -0.61500
O1752       O  0.42889797  0.13299088  0.60350835    -0.52400
C1753       C  0.42548646  0.12029973  0.98571899     0.69600
O1754       O  0.40907530  0.12064890  0.98339560    -0.47300
C1755       C  0.41953513  0.16494978  0.53641887     0.74300
O1756       O  0.37890927  0.10038091  0.54253476    -0.59200
O1757       O  0.42949541  0.16044976  0.55991627    -0.49200
O1758       O  0.38503505  0.12360660  0.58366324    -0.55600
C1759       C  0.42338621  0.11445979  0.60940025     0.84500
O1760       O  0.43676765  0.12538660  0.51862789    -0.57500
O1761       O  0.40595715  0.14995089  0.51768050    -0.60800
In1762     In  0.24815021  0.04594184  0.63687409     1.36900
C1763       C  0.28713103  0.06453680  0.61493346     0.76900
O1764       O  0.23859480  0.01615801  0.60702881    -0.61500
O1765       O  0.23285103  0.03751331  0.57818581    -0.52400
C1766       C  0.23524554  0.02004334  0.69695147     0.69600
O1767       O  0.25360256  0.02985576  0.68620486    -0.47300
C1768       C  0.24003493  0.07590303  0.65129770     0.74300
O1769       O  0.28155714  0.05981901  0.64989856    -0.59200
O1770       O  0.22806399  0.05985270  0.63302888    -0.49200
O1771       O  0.27277522  0.06022321  0.59138673    -0.55600
C1772       C  0.23180064  0.02037312  0.57704990     0.84500
O1773       O  0.22367283  0.02458387  0.67845427    -0.57500
O1774       O  0.25583459  0.07621601  0.66358058    -0.60800
In1775     In  0.19529666  0.93571677  0.88379558     1.36900
C1776       C  0.21583653  0.91832352  0.91132348     0.76900
O1777       O  0.21482834  0.96564552  0.91352527    -0.61500
O1778       O  0.18737929  0.94401839  0.94127056    -0.52400
C1779       C  0.20495437  0.95930063  0.82056873     0.69600
O1780       O  0.21252780  0.94807970  0.82740389    -0.47300
C1781       C  0.15790734  0.90512099  0.86816534     0.74300
O1782       O  0.22261354  0.93130073  0.88410831    -0.59200
O1783       O  0.16131168  0.92063804  0.88760346    -0.49200
O1784       O  0.19848695  0.91401134  0.92358507    -0.55600
C1785       C  0.20329158  0.96128964  0.94268914     0.84500
O1786       O  0.19175232  0.95743039  0.84507954    -0.57500
O1787       O  0.17379451  0.90599010  0.85463831    -0.60800
In1788     In  0.27787990  0.85748612  0.97946956     1.36900
C1789       C  0.25767153  0.87698206  0.96472055     0.76900
O1790       O  0.29811878  0.88184387  0.93750100    -0.61500
O1791       O  0.29601926  0.85287085  0.93352078    -0.52400
C1792       C  0.30480592  0.87006733  0.53526850     0.69600
O1793       O  0.28867735  0.87100942  0.53566997    -0.47300
C1794       C  0.24763218  0.81885929  0.98021946     0.74300
O1795       O  0.27289661  0.88421225  0.98728743    -0.59200
O1796       O  0.26041436  0.82637023  0.95289841    -0.49200
O1797       O  0.25285569  0.85990178  0.95017585    -0.55600
C1798       C  0.30354916  0.87072645  0.92002685     0.84500
O1799       O  0.30544506  0.85984956  0.00833054    -0.57500
O1800       O  0.25641732  0.83505196  0.50361034    -0.60800
C1801       C  0.22692588  0.90855222  0.92739107    -0.06800
C1802       C  0.21558179  0.88797137  0.93864547    -0.17900
C1803       C  0.22518312  0.87755473  0.95252869     0.10400
C1804       C  0.24668228  0.88780344  0.95485268    -0.06700
C1805       C  0.25801523  0.90854859  0.94494572    -0.17900
C1806       C  0.24837453  0.91907771  0.93173038     0.10400
S1807       S  0.20915494  0.85135396  0.96755999    -0.32900
S1808       S  0.26418805  0.94602341  0.92241161    -0.32900
H1809       H  0.25018957  0.95126713  0.93763413     0.28500
H1810       H  0.22200691  0.85202640  0.99786765     0.28400
H1811       H  0.19909071  0.87985488  0.93625156     0.19000
H1812       H  0.27451458  0.91655219  0.94707016     0.19000
C1813       C  0.20833603  0.97530884  0.97583828    -0.06800
C1814       C  0.21762737  0.99627922  0.96814184    -0.17900
C1815       C  0.22393115  0.01047915  0.99847144     0.10400
C1816       C  0.22370791  0.00637795  0.54333526    -0.06700
C1817       C  0.21444519  0.98528293  0.55016181    -0.17900
C1818       C  0.20781980  0.97133833  0.51926469     0.10400
S1819       S  0.23684588  0.03710129  0.98515813    -0.32900
S1820       S  0.19850680  0.94490374  0.53103574    -0.32900
H1821       H  0.20503683  0.93774883  0.00035601     0.28500
H1822       H  0.25541981  0.04540409  0.51772712     0.28400
H1823       H  0.22033497  0.00167512  0.93822120     0.19000
H1824       H  0.21292749  0.97964337  0.57976844     0.19000
C1825       C  0.22767998  0.00419583  0.72794654    -0.06800
C1826       C  0.20893476  0.99860523  0.74582519    -0.17900
C1827       C  0.20098930  0.98390032  0.77546008     0.10400
C1828       C  0.21185074  0.97418558  0.78779030    -0.06700
C1829       C  0.23040278  0.97947546  0.76929779    -0.17900
C1830       C  0.23831391  0.99412383  0.73953189     0.10400
S1831       S  0.17665729  0.97791783  0.79545531    -0.32900
S1832       S  0.26163436  0.99857337  0.71678308    -0.32900
H1833       H  0.25414107  0.99691781  0.67856026     0.28500
H1834       H  0.18519620  0.98692442  0.83167114     0.28400
H1835       H  0.20042630  0.00591977  0.73696554     0.19000
H1836       H  0.23891374  0.97215478  0.77809374     0.19000
C1837       C  0.30876195  0.07454361  0.60293938    -0.06800
C1838       C  0.32362160  0.08793263  0.62929251    -0.17900
C1839       C  0.34435072  0.09813045  0.61968635     0.10400
C1840       C  0.35052651  0.09545912  0.58220774    -0.06700
C1841       C  0.33568409  0.08176422  0.55612603    -0.17900
C1842       C  0.31499792  0.07112325  0.56618326     0.10400
S1843       S  0.36203125  0.11355646  0.65730234    -0.32900
S1844       S  0.29759155  0.05284003  0.53137220    -0.32900
H1845       H  0.28555046  0.03810222  0.55944827     0.28500
H1846       H  0.37573510  0.10651905  0.65019628     0.28400
H1847       H  0.31906251  0.09040711  0.65780601     0.19000
H1848       H  0.34021334  0.07926028  0.52761320     0.19000
C1849       C  0.43016292  0.10756058  0.64370063    -0.06800
C1850       C  0.44810268  0.12181537  0.66286209    -0.17900
C1851       C  0.45595067  0.11611332  0.69424855     0.10400
C1852       C  0.44578108  0.09555957  0.70685021    -0.06700
C1853       C  0.42766829  0.08138090  0.68816557    -0.17900
C1854       C  0.41967036  0.08711289  0.65712641     0.10400
S1855       S  0.47865871  0.13593820  0.71734595    -0.32900
S1856       S  0.39581252  0.06760886  0.63688099    -0.32900
H1857       H  0.38707281  0.08016192  0.63546252     0.28500
H1858       H  0.47142517  0.12965236  0.75557639     0.28400
H1859       H  0.45621393  0.13756671  0.65317889     0.19000
H1860       H  0.41959776  0.06562558  0.69786153     0.19000
C1861       C  0.43404266  0.11410301  0.95324252    -0.06800
C1862       C  0.44334211  0.10260736  0.96237976    -0.17900
C1863       C  0.45098736  0.09534444  0.93325305     0.10400
C1864       C  0.44928008  0.09950389  0.89364254    -0.06700
C1865       C  0.44024108  0.11128782  0.88452702    -0.17900
C1866       C  0.43270300  0.11866383  0.91374920     0.10400
S1867       S  0.46309861  0.08127891  0.94883499    -0.32900
S1868       S  0.42213133  0.13424120  0.89878222    -0.32900
H1869       H  0.43036599  0.14789368  0.93028474     0.28500
H1870       H  0.47929267  0.09065826  0.92199998     0.28400
H1871       H  0.44450632  0.09905379  0.99258877     0.19000
H1872       H  0.43887234  0.11466549  0.85430621     0.19000
C1873       C  0.34532881  0.89028667  0.82353253    -0.06800
C1874       C  0.33272064  0.89875060  0.82905025    -0.17900
C1875       C  0.31905803  0.89286146  0.86038193     0.10400
C1876       C  0.31778874  0.87794544  0.88677055    -0.06700
C1877       C  0.33037563  0.86951449  0.88141191    -0.17900
C1878       C  0.34433983  0.87574261  0.85068360     0.10400
S1879       S  0.30259153  0.90365326  0.86467276    -0.32900
S1880       S  0.36082505  0.86502980  0.84894119    -0.32900
H1881       H  0.37869593  0.88404852  0.84370059     0.28500
H1882       H  0.31185259  0.91853934  0.83532619     0.28400
H1883       H  0.33331253  0.90981038  0.80828984     0.19000
H1884       H  0.32970162  0.85831179  0.90197460     0.19000
C1885       C  0.34627612  0.88747328  0.63225111    -0.06800
C1886       C  0.32517401  0.87727358  0.63906290    -0.17900
C1887       C  0.31124823  0.87110891  0.60814494     0.10400
C1888       C  0.31850196  0.87505814  0.56930224    -0.06700
C1889       C  0.33961795  0.88465967  0.56253847    -0.17900
C1890       C  0.35353516  0.89091145  0.59346799     0.10400
S1891       S  0.28450154  0.85820725  0.62028959    -0.32900
S1892       S  0.38029306  0.90298067  0.58152160    -0.32900
H1893       H  0.38550862  0.89463217  0.61312932     0.28500
H1894       H  0.27849263  0.84390993  0.58978135     0.28400
H1895       H  0.31948859  0.87453331  0.66877049     0.19000
H1896       H  0.34537710  0.88766744  0.53288474     0.19000
C1897       C  0.41496387  0.97220237  0.75482092    -0.06800
C1898       C  0.43633751  0.98280618  0.75731488    -0.17900
C1899       C  0.44720605  0.00342083  0.76801267     0.10400
C1900       C  0.43655185  0.01391173  0.77566369    -0.06700
C1901       C  0.41516389  0.00318581  0.77392670    -0.17900
C1902       C  0.40428841  0.98248338  0.76405739     0.10400
S1903       S  0.47448821  0.01512995  0.77317836    -0.32900
S1904       S  0.37683649  0.96984904  0.76576105    -0.32900
H1905       H  0.37452420  0.95236943  0.78484690     0.28500
H1906       H  0.47581465  0.02673860  0.80624521     0.28400
H1907       H  0.44464113  0.97493015  0.75116827     0.19000
H1908       H  0.40682248  0.01099255  0.78035004     0.19000
C1909       C  0.56373345  0.09114448  0.80361346    -0.06800
C1910       C  0.55089989  0.08151153  0.83566834    -0.17900
C1911       C  0.53254081  0.08144797  0.84048269     0.10400
C1912       C  0.52614764  0.09043783  0.81162365    -0.06700
C1913       C  0.53984652  0.10163142  0.78145935    -0.17900
C1914       C  0.55869591  0.10252393  0.77775612     0.10400
S1915       S  0.51792313  0.06914866  0.88365758    -0.32900
S1916       S  0.57554199  0.11850920  0.73961533    -0.32900
H1917       H  0.59333880  0.12581579  0.76233887     0.28500
H1918       H  0.51345751  0.08471411  0.89160957     0.28400
H1919       H  0.55487859  0.07341776  0.85675207     0.19000
H1920       H  0.53568623  0.10938800  0.75993936     0.19000
C1921       C  0.46856958  0.89896140  0.70712070    -0.06800
C1922       C  0.45834851  0.89384730  0.74310730    -0.17900
C1923       C  0.44009638  0.89388677  0.74825118     0.10400
C1924       C  0.43136042  0.89870851  0.71637420    -0.06700
C1925       C  0.44078148  0.90217849  0.67961082    -0.17900
C1926       C  0.45907405  0.90217272  0.67453778     0.10400
S1927       S  0.42963621  0.88884358  0.79682912    -0.32900
S1928       S  0.46939522  0.90645294  0.62581318    -0.32900
H1929       H  0.47578458  0.89198687  0.62893224     0.28500
H1930       H  0.43273715  0.90867770  0.80120168     0.28400
H1931       H  0.46525091  0.89103169  0.76827739     0.19000
H1932       H  0.43409034  0.90535801  0.65456071     0.19000
C1933       C  0.56016490  0.97542187  0.73313124    -0.06800
C1934       C  0.55720455  0.98893153  0.70963836    -0.17900
C1935       C  0.56612002  0.00971514  0.71898841     0.10400
C1936       C  0.57874509  0.01754262  0.75242695    -0.06700
C1937       C  0.58162690  0.00399062  0.77587660    -0.17900
C1938       C  0.57239137  0.98318771  0.76702188     0.10400
S1939       S  0.56014099  0.02509963  0.68766269    -0.32900
S1940       S  0.57623104  0.96739570  0.80134188    -0.32900
H1941       H  0.55534387  0.95272189  0.80388316     0.28500
H1942       H  0.55627854  0.03483594  0.71870450     0.28400
H1943       H  0.54765591  0.98322486  0.68389674     0.19000
H1944       H  0.59112560  0.00961234  0.80169191     0.19000
C1945       C  0.54854984  0.89600293  0.61102870    -0.06800
C1946       C  0.56898061  0.90080799  0.61071378    -0.17900
C1947       C  0.57644547  0.89339152  0.58167503     0.10400
C1948       C  0.56338951  0.88125052  0.55122774    -0.06700
C1949       C  0.54294340  0.87650694  0.55134360    -0.17900
C1950       C  0.53545904  0.88394411  0.58050262     0.10400
S1951       S  0.60249138  0.89915397  0.58654987    -0.32900
S1952       S  0.50944441  0.87833882  0.57585290    -0.32900
H1953       H  0.51357433  0.89778032  0.58806156     0.28500
H1954       H  0.59829496  0.87950946  0.57567462     0.28400
H1955       H  0.57909419  0.90977965  0.63421050     0.19000
H1956       H  0.53288648  0.86755123  0.52776937     0.19000
C1957       C  0.54976677  0.86858508  0.86584972    -0.06800
C1958       C  0.54281103  0.88231101  0.87292390    -0.17900
C1959       C  0.53577598  0.88953317  0.84264358     0.10400
C1960       C  0.53639838  0.88361496  0.80372004    -0.06700
C1961       C  0.54189406  0.86871503  0.79702326    -0.17900
C1962       C  0.54812127  0.86083637  0.82763942     0.10400
S1963       S  0.52629175  0.90626109  0.85596985    -0.32900
S1964       S  0.55364311  0.84093652  0.81588681    -0.32900
H1965       H  0.54451292  0.82955944  0.84993531     0.28500
H1966       H  0.50943386  0.89699033  0.83056306     0.28400
H1967       H  0.54330726  0.88792402  0.90221411     0.19000
H1968       H  0.54177257  0.86343505  0.76759500     0.19000
C1969       C  0.64324580  0.89577528  0.92634167    -0.06800
C1970       C  0.64944950  0.89182131  0.89040770    -0.17900
C1971       C  0.67009173  0.90102887  0.88038564     0.10400
C1972       C  0.68510299  0.91496690  0.90646573    -0.06700
C1973       C  0.67887420  0.91923957  0.94208882    -0.17900
C1974       C  0.65818322  0.91015923  0.95190720     0.10400
S1975       S  0.67619619  0.89332067  0.83497317    -0.32900
S1976       S  0.65182768  0.91848225  0.99627141    -0.32900
H1977       H  0.63456778  0.91828656  0.98057430     0.28500
H1978       H  0.69212737  0.89114690  0.85086179     0.28400
H1979       H  0.63816951  0.88078267  0.87056549     0.19000
H1980       H  0.69017884  0.93023879  0.96194580     0.19000
C1981       C  0.77293682  0.98538970  0.97067292    -0.06800
C1982       C  0.76978019  0.97712969  0.51036492    -0.17900
C1983       C  0.77585861  0.98983174  0.54320590     0.10400
C1984       C  0.78840613  0.01115784  0.53844895    -0.06700
C1985       C  0.79104269  0.01954498  0.99835421    -0.17900
C1986       C  0.78368796  0.00684016  0.96562192     0.10400
S1987       S  0.76724197  0.97785299  0.59028279    -0.32900
S1988       S  0.78825677  0.01903374  0.91854597    -0.32900
H1989       H  0.79282266  0.00531337  0.89974546     0.28500
H1990       H  0.78512239  0.99159382  0.61042447     0.28400
H1991       H  0.75976544  0.96084717  0.51426541     0.19000
H1992       H  0.79884298  0.03595218  0.99431811     0.19000
C1993       C  0.76786706  0.98302769  0.78297090    -0.06800
C1994       C  0.78875514  0.99761088  0.78098235    -0.17900
C1995       C  0.79649709  0.01274891  0.75205069     0.10400
C1996       C  0.78323742  0.01309717  0.72342371    -0.06700
C1997       C  0.76238226  0.99844810  0.72529832    -0.17900
C1998       C  0.75461751  0.98337838  0.75424860     0.10400
S1999       S  0.82312632  0.03189661  0.75491962    -0.32900
S2000       S  0.72781684  0.96463993  0.75172622    -0.32900
H2001       H  0.73057311  0.94800911  0.76024757     0.28500
H2002       H  0.82003746  0.04827075  0.74590136     0.28400
H2003       H  0.79904516  0.99778341  0.80314060     0.19000
H2004       H  0.75205881  0.99834342  0.70328366     0.19000
C2005       C  0.68164208  0.11683496  0.63174620    -0.06800
C2006       C  0.67286782  0.12847501  0.64335592    -0.17900
C2007       C  0.65923544  0.12244121  0.67489902     0.10400
C2008       C  0.65396125  0.10412914  0.69522766    -0.06700
C2009       C  0.66313910  0.09280037  0.68383803    -0.17900
C2010       C  0.67694820  0.09899293  0.65286903     0.10400
S2011       S  0.64941606  0.13892384  0.68771037    -0.32900
S2012       S  0.68857412  0.08376134  0.64277391    -0.32900
H2013       H  0.70806863  0.10056411  0.63541740     0.28500
H2014       H  0.65378748  0.13913772  0.72769536     0.28400
H2015       H  0.67655597  0.14231382  0.62757303     0.19000
H2016       H  0.65956282  0.07888313  0.69919182     0.19000
C2017       C  0.65175343  0.10181460  0.87677186    -0.06800
C2018       C  0.64905929  0.08852240  0.90773385    -0.17900
C2019       C  0.66233462  0.09491644  0.93972825     0.10400
C2020       C  0.67903907  0.11508214  0.94110234    -0.06700
C2021       C  0.68165562  0.12855966  0.91059461    -0.17900
C2022       C  0.66851488  0.12206827  0.87818120     0.10400
S2023       S  0.66127809  0.07667616  0.47486363    -0.32900
S2024       S  0.67488018  0.13992710  0.83856455    -0.32900
H2025       H  0.67155271  0.12555837  0.80927834     0.28500
H2026       H  0.66478688  0.08858787  0.50858158     0.28400
H2027       H  0.63626209  0.07303292  0.90739346     0.19000
H2028       H  0.69456487  0.14398735  0.91116419     0.19000
C2029       C  0.77215030  0.08328871  0.59422028    -0.06800
C2030       C  0.77516717  0.09117969  0.55606672    -0.17900
C2031       C  0.76628371  0.10254585  0.54343748     0.10400
C2032       C  0.75380559  0.10601243  0.56925173    -0.06700
C2033       C  0.75091085  0.09828480  0.60736439    -0.17900
C2034       C  0.75947965  0.08666249  0.61982192     0.10400
S2035       S  0.77229709  0.11300911  0.49478901    -0.32900
S2036       S  0.75257356  0.07570807  0.66797070    -0.32900
H2037       H  0.74759858  0.05603969  0.65550035     0.28500
H2038       H  0.77387516  0.13173779  0.50497460     0.28400
H2039       H  0.78491148  0.08889466  0.53607477     0.19000
H2040       H  0.74115107  0.10059226  0.62726472     0.19000
C2041       C  0.23430208  0.12954219  0.64755969    -0.06800
C2042       C  0.24660562  0.12785799  0.67635909    -0.17900
C2043       C  0.24758054  0.10996070  0.68065841     0.10400
C2044       C  0.23647011  0.09341545  0.65485350    -0.06700
C2045       C  0.22290343  0.09451096  0.62839151    -0.17900
C2046       C  0.22160450  0.11224032  0.62457196     0.10400
S2047       S  0.26312353  0.10923022  0.71972976    -0.32900
S2048       S  0.20341650  0.11217626  0.59042161    -0.32900
H2049       H  0.20194801  0.09632358  0.56677054     0.28500
H2050       H  0.24965006  0.08859962  0.72895688     0.28400
H2051       H  0.25601171  0.14077383  0.69501528     0.19000
H2052       H  0.21372285  0.08164365  0.60951981     0.19000
C2053       C  0.42019906  0.22200374  0.53656998    -0.06800
C2054       C  0.41569934  0.21322350  0.00240055    -0.17900
C2055       C  0.41710468  0.19556748  0.00003837     0.10400
C2056       C  0.42229212  0.18572117  0.53362230    -0.06700
C2057       C  0.42829385  0.19791959  0.56731230    -0.17900
C2058       C  0.42693671  0.21566958  0.56944983     0.10400
S2059       S  0.41218713  0.18308059  0.95329870    -0.32900
S2060       S  0.43198478  0.22819868  0.61616987    -0.32900
H2061       H  0.41442715  0.23006207  0.61559293     0.28500
H2062       H  0.42661814  0.17677472  0.95822745     0.28400
H2063       H  0.41117992  0.21831816  0.97668618     0.19000
H2064       H  0.43262300  0.19280398  0.59325008     0.19000
C2065       C  0.34709709  0.24085753  0.56774031    -0.06800
C2066       C  0.33377944  0.22317047  0.54680212    -0.17900
C2067       C  0.31329744  0.21089738  0.55778442     0.10400
C2068       C  0.30554682  0.21666181  0.58994513    -0.06700
C2069       C  0.31885815  0.23457436  0.61036484    -0.17900
C2070       C  0.33938910  0.24671157  0.59970335     0.10400
S2071       S  0.29822007  0.18793214  0.53000351    -0.32900
S2072       S  0.35502216  0.27025625  0.62590322    -0.32900
H2073       H  0.34187389  0.26590043  0.65796876     0.28500
H2074       H  0.29098001  0.17537092  0.56329182     0.28400
H2075       H  0.33954629  0.21842009  0.52247724     0.19000
H2076       H  0.31304688  0.23942157  0.63440978     0.19000
C2077       C  0.22285370  0.20557163  0.52734292    -0.06800
C2078       C  0.23097325  0.22669160  0.52257643    -0.17900
C2079       C  0.22282867  0.23755941  0.99394493     0.10400
C2080       C  0.20966691  0.22467014  0.96445399    -0.06700
C2081       C  0.20164393  0.20353763  0.96744091    -0.17900
C2082       C  0.20829148  0.19215600  0.49989025     0.10400
S2083       S  0.23176956  0.26456662  0.99585577    -0.32900
S2084       S  0.19770664  0.16491473  0.50103300    -0.32900
H2085       H  0.21677160  0.16623273  0.50585980     0.28500
H2086       H  0.21347924  0.26281246  0.98196690     0.28400
H2087       H  0.24196510  0.23725879  0.54339677     0.19000
H2088       H  0.19143151  0.19354316  0.94501324     0.19000
C2089       C  0.21129970  0.22512770  0.77472116    -0.06800
C2090       C  0.23148449  0.23607427  0.76104238    -0.17900
C2091       C  0.23819952  0.22903810  0.72998232     0.10400
C2092       C  0.22464579  0.21016294  0.71205837    -0.06700
C2093       C  0.20431196  0.19935054  0.72495809    -0.17900
C2094       C  0.19753795  0.20646475  0.75607780     0.10400
S2095       S  0.26407122  0.24550318  0.71379721    -0.32900
S2096       S  0.17125576  0.19086416  0.77038774    -0.32900
H2097       H  0.17622591  0.18859842  0.80894122     0.28500
H2098       H  0.25890410  0.24335616  0.67393275     0.28400
H2099       H  0.24224226  0.25051749  0.77434040     0.19000
H2100       H  0.19368657  0.18494835  0.71134418     0.19000
C2101       C  0.22774982  0.31189335  0.89804910    -0.06800
C2102       C  0.22552054  0.31705111  0.93647943    -0.17900
C2103       C  0.23555358  0.33734244  0.94933589     0.10400
C2104       C  0.24900005  0.35308229  0.92390674    -0.06700
C2105       C  0.25125412  0.34801669  0.88555819    -0.17900
C2106       C  0.24055001  0.32782766  0.87216012     0.10400
S2107       S  0.23865636  0.33476483  0.50573364    -0.32900
S2108       S  0.24334985  0.32376692  0.82134142    -0.32900
H2109       H  0.22217010  0.31212110  0.81483630     0.28500
H2110       H  0.23193475  0.34901756  0.50433761     0.28400
H2111       H  0.21554384  0.30520319  0.95668904     0.19000
H2112       H  0.26125032  0.35996944  0.86552814     0.19000
C2113       C  0.32190179  0.44114050  0.86580746    -0.06800
C2114       C  0.31402837  0.43979068  0.82816829    -0.17900
C2115       C  0.32670749  0.44568640  0.79536649     0.10400
C2116       C  0.34780365  0.45306339  0.80014146    -0.06700
C2117       C  0.35583013  0.45543120  0.83788282    -0.17900
C2118       C  0.34317936  0.44964599  0.87068526     0.10400
S2119       S  0.31500965  0.44343207  0.74839962    -0.32900
S2120       S  0.35518943  0.45357924  0.91779623    -0.32900
H2121       H  0.34226874  0.45928497  0.93636789     0.28500
H2122       H  0.33153369  0.46127031  0.73277478     0.28400
H2123       H  0.29777315  0.43351365  0.82411439     0.19000
H2124       H  0.37203352  0.46132939  0.84184801     0.19000
C2125       C  0.34549388  0.44377761  0.61549003    -0.06800
C2126       C  0.34225574  0.45769881  0.59409916    -0.17900
C2127       C  0.32889746  0.45138458  0.56224994     0.10400
C2128       C  0.31820603  0.43051554  0.55150680    -0.06700
C2129       C  0.32120232  0.41657596  0.57340209    -0.17900
C2130       C  0.33428117  0.42283840  0.60557134     0.10400
S2131       S  0.32697380  0.47092829  0.53588346    -0.32900
S2132       S  0.33489301  0.40311074  0.63395629    -0.32900
H2133       H  0.33410774  0.41146765  0.67015034     0.28500
H2134       H  0.32909810  0.46409120  0.49900638     0.28400
H2135       H  0.35064362  0.47377276  0.60152726     0.19000
H2136       H  0.31280151  0.40048078  0.56613510     0.19000
C2137       C  0.44825121  0.33813285  0.69686202    -0.06800
C2138       C  0.43478274  0.31736797  0.70390769    -0.17900
C2139       C  0.42744864  0.30323951  0.67345284     0.10400
C2140       C  0.43387919  0.30990004  0.63479037    -0.06700
C2141       C  0.44763113  0.33068387  0.62781152    -0.17900
C2142       C  0.45476940  0.34487587  0.65831965     0.10400
S2143       S  0.40898308  0.27725219  0.68582727    -0.32900
S2144       S  0.47110740  0.37139538  0.64580509    -0.32900
H2145       H  0.46224119  0.37883752  0.67228154     0.28500
H2146       H  0.39553760  0.27504336  0.65552628     0.28400
H2147       H  0.42958892  0.31215063  0.73339969     0.19000
H2148       H  0.45253154  0.33598264  0.59824746     0.19000
C2149       C  0.44471230  0.33756764  0.88283390    -0.06800
C2150       C  0.45867926  0.33562293  0.90676681    -0.17900
C2151       C  0.45210344  0.32244059  0.93907046     0.10400
C2152       C  0.43097788  0.31044134  0.94731125    -0.06700
C2153       C  0.41706370  0.31213198  0.92286183    -0.17900
C2154       C  0.42359142  0.32522967  0.89068006     0.10400
S2155       S  0.47150541  0.32262295  0.96973357    -0.32900
S2156       S  0.40400701  0.32467777  0.85994031    -0.32900
H2157       H  0.41364400  0.32472483  0.82480100     0.28500
H2158       H  0.46346127  0.32383332  0.50576877     0.28400
H2159       H  0.47489183  0.34499532  0.90115462     0.19000
H2160       H  0.40083062  0.30282896  0.92837726     0.19000
C2161       C  0.43303755  0.40786177  0.75661262    -0.06800
C2162       C  0.42621743  0.41566180  0.78644731    -0.17900
C2163       C  0.41628638  0.42656444  0.77816403     0.10400
C2164       C  0.41350405  0.43045165  0.73885755    -0.06700
C2165       C  0.42003484  0.42234174  0.70901138    -0.17900
C2166       C  0.42940349  0.41088818  0.71734174     0.10400
S2167       S  0.40720436  0.43453307  0.81930713    -0.32900
S2168       S  0.43565179  0.40009540  0.67645311    -0.32900
H2169       H  0.42800408  0.38077842  0.69389718     0.28500
H2170       H  0.38759063  0.42717526  0.80350656     0.28400
H2171       H  0.42860132  0.41323530  0.81671007     0.19000
H2172       H  0.41772717  0.42481829  0.67874055     0.19000
C2173       C  0.57276096  0.76465525  0.95698515    -0.06800
C2174       C  0.57955878  0.77898101  0.49174684    -0.17900
C2175       C  0.57955975  0.79735339  0.49620167     0.10400
C2176       C  0.57171653  0.80131632  0.96532930    -0.06700
C2177       C  0.56192552  0.78811673  0.93379795    -0.17900
C2178       C  0.56266720  0.77014534  0.92892286     0.10400
S2179       S  0.58881658  0.81069403  0.54182404    -0.32900
S2180       S  0.55236309  0.75617978  0.88423012    -0.32900
H2181       H  0.56945096  0.75411553  0.87626557     0.28500
H2182       H  0.57468689  0.81755948  0.54322521     0.28400
H2183       H  0.58566278  0.77390534  0.51499830     0.19000
H2184       H  0.55492508  0.79254818  0.91115535     0.19000
C2185       C  0.75688437  0.85855443  0.86424948    -0.06800
C2186       C  0.74595745  0.86226810  0.83544842    -0.17900
C2187       C  0.74594057  0.88071138  0.83385717     0.10400
C2188       C  0.75668333  0.89590687  0.86240171    -0.06700
C2189       C  0.76862172  0.89272418  0.88977557    -0.17900
C2190       C  0.76867144  0.87424565  0.89130341     0.10400
S2191       S  0.73196348  0.88380326  0.79442404    -0.32900
S2192       S  0.78262953  0.87110199  0.93061485    -0.32900
H2193       H  0.76606853  0.85232028  0.94287921     0.28500
H2194       H  0.74669004  0.90437306  0.78754071     0.28400
H2195       H  0.73721258  0.85061945  0.81393460     0.19000
H2196       H  0.77699374  0.90419659  0.91179712     0.19000
C2197       C  0.68641514  0.76415456  0.89932431    -0.06800
C2198       C  0.67987437  0.76631091  0.93642500    -0.17900
C2199       C  0.65913898  0.75658582  0.94607836     0.10400
C2200       C  0.64431448  0.74390551  0.91835002    -0.06700
C2201       C  0.65088700  0.74135611  0.88154946    -0.17900
C2202       C  0.67164465  0.75100940  0.87198080     0.10400
S2203       S  0.65273210  0.76212174  0.99338822    -0.32900
S2204       S  0.67818480  0.74517834  0.82505115    -0.32900
H2205       H  0.69471368  0.74352106  0.83928737     0.28500
H2206       H  0.63792398  0.76639986  0.97876199     0.28400
H2207       H  0.69096756  0.77635626  0.95768716     0.19000
H2208       H  0.63976923  0.73142614  0.86020098     0.19000
C2209       C  0.78498424  0.77270621  0.52647218    -0.06800
C2210       C  0.79244740  0.77227982  0.48921046    -0.17900
C2211       C  0.78769270  0.77571704  0.95570804     0.10400
C2212       C  0.77503654  0.78427754  0.96161414    -0.06700
C2213       C  0.76654447  0.78819730  0.49814329    -0.17900
C2214       C  0.77250711  0.78152907  0.53104199     0.10400
S2215       S  0.79786873  0.77495991  0.90863509    -0.32900
S2216       S  0.76384049  0.78492002  0.57795904    -0.32900
H2217       H  0.78198800  0.78975912  0.59777921     0.28500
H2218       H  0.80149866  0.79435376  0.89731628     0.28400
H2219       H  0.80227289  0.76070031  0.98274520     0.19000
H2220       H  0.75633335  0.79419190  0.50178794     0.19000
C2221       C  0.77903798  0.76843285  0.70848200    -0.06800
C2222       C  0.79389368  0.78445765  0.73106101    -0.17900
C2223       C  0.78850682  0.79201365  0.76341885     0.10400
C2224       C  0.76768385  0.78353246  0.77352004    -0.06700
C2225       C  0.75282755  0.76791280  0.75013942    -0.17900
C2226       C  0.75819986  0.76062439  0.71745986     0.10400
S2227       S  0.80904140  0.81168920  0.79149980    -0.32900
S2228       S  0.73766902  0.74220362  0.68736665    -0.32900
H2229       H  0.74755816  0.75098198  0.65187383     0.28500
H2230       H  0.80139469  0.80162552  0.82729049     0.28400
H2231       H  0.80991071  0.79068542  0.72431907     0.19000
H2232       H  0.73678877  0.76156756  0.75686577     0.19000
C2233       C  0.74159836  0.64120799  0.56905879    -0.06800
C2234       C  0.74721483  0.65589392  0.53943602    -0.17900
C2235       C  0.75785757  0.67679403  0.54788692     0.10400
C2236       C  0.76343133  0.68335204  0.58688925    -0.06700
C2237       C  0.75733960  0.66864000  0.61658444    -0.17900
C2238       C  0.74628672  0.64775663  0.60822081     0.10400
S2239       S  0.76328567  0.69417322  0.50771929    -0.32900
S2240       S  0.73795905  0.63034070  0.64897544    -0.32900
H2241       H  0.71851312  0.61706134  0.63333150     0.28500
H2242       H  0.75802064  0.70695612  0.52821568     0.28400
H2243       H  0.74342033  0.65107164  0.50933773     0.19000
H2244       H  0.76117668  0.67343074  0.64668613     0.19000
C2245       C  0.46985797  0.56181015  0.67621265    -0.06800
C2246       C  0.45621100  0.55842868  0.70682483    -0.17900
C2247       C  0.43838702  0.53954666  0.71170154     0.10400
C2248       C  0.43370323  0.52354749  0.68495386    -0.06700
C2249       C  0.44652788  0.52748718  0.65258449    -0.17900
C2250       C  0.46423567  0.54649989  0.64749254     0.10400
S2251       S  0.42345357  0.53643367  0.75476055    -0.32900
S2252       S  0.47876200  0.55031819  0.60351036    -0.32900
H2253       H  0.48472754  0.57108106  0.59968001     0.28500
H2254       H  0.42332431  0.51863916  0.76705254     0.28400
H2255       H  0.46014580  0.57006734  0.72887679     0.19000
H2256       H  0.44277911  0.51562833  0.63110153     0.19000
C2257       C  0.54265530  0.65153483  0.78051045    -0.06800
C2258       C  0.53417855  0.64397675  0.81742565    -0.17900
C2259       C  0.54033174  0.65668439  0.85020889     0.10400
C2260       C  0.55562452  0.67741478  0.84631096    -0.06700
C2261       C  0.56332005  0.68519796  0.80912473    -0.17900
C2262       C  0.55684363  0.67260838  0.77621902     0.10400
S2263       S  0.52787056  0.64556316  0.89590789    -0.32900
S2264       S  0.56700507  0.68452081  0.72967055    -0.32900
H2265       H  0.54863163  0.67271367  0.70918003     0.28500
H2266       H  0.52790809  0.66312140  0.90935374     0.28400
H2267       H  0.52297743  0.62794471  0.82098628     0.19000
H2268       H  0.57476464  0.70116596  0.80571450     0.19000
C2269       C  0.54742507  0.64977252  0.59569228    -0.06800
C2270       C  0.53675720  0.66007273  0.58748836    -0.17900
C2271       C  0.54342238  0.67516668  0.55854660     0.10400
C2272       C  0.56097370  0.67989601  0.53628279    -0.06700
C2273       C  0.57168350  0.66967822  0.54472036    -0.17900
C2274       C  0.56505036  0.65462114  0.57355537     0.10400
S2275       S  0.52933798  0.68833738  0.55287359    -0.32900
S2276       S  0.57935335  0.64164126  0.57907981    -0.32900
H2277       H  0.56191901  0.62204939  0.58070691     0.28500
H2278       H  0.54689263  0.70780731  0.55033558     0.28400
H2279       H  0.52342472  0.65680477  0.60457656     0.19000
H2280       H  0.58504461  0.67291833  0.52775275     0.19000
C2281       C  0.55787055  0.46672421  0.80304646    -0.06800
C2282       C  0.55314453  0.45351768  0.77112082    -0.17900
C2283       C  0.53479777  0.43498788  0.76930749     0.10400
C2284       C  0.52093424  0.42889561  0.80088460    -0.06700
C2285       C  0.52597459  0.44172442  0.83354629    -0.17900
C2286       C  0.54434731  0.46038611  0.83521598     0.10400
S2287       S  0.52930195  0.42095448  0.72418959    -0.32900
S2288       S  0.54974902  0.47506772  0.87944455    -0.32900
H2289       H  0.57076680  0.48181920  0.87914351     0.28500
H2290       H  0.50939926  0.41777857  0.72091716     0.28400
H2291       H  0.56322060  0.45823232  0.74604803     0.19000
H2292       H  0.51555867  0.43713946  0.85807220     0.19000
C2293       C  0.64502001  0.54428490  0.69076278    -0.06800
C2294       C  0.65046854  0.53085849  0.67366650    -0.17900
C2295       C  0.66362177  0.53678034  0.64146524     0.10400
C2296       C  0.67196373  0.55678103  0.62637241    -0.06700
C2297       C  0.66616654  0.57001241  0.64299656    -0.17900
C2298       C  0.65262884  0.56394023  0.67441485     0.10400
S2299       S  0.66842839  0.51786517  0.62016507    -0.32900
S2300       S  0.64502537  0.58172836  0.69089102    -0.32900
H2301       H  0.62427553  0.56686498  0.69481857     0.28500
H2302       H  0.66772594  0.52355454  0.58134213     0.28400
H2303       H  0.64439896  0.51560080  0.68539965     0.19000
H2304       H  0.67219785  0.58528066  0.63132302     0.19000
C2305       C  0.64476760  0.54191406  0.87991612    -0.06800
C2306       C  0.65412414  0.56238564  0.89158791    -0.17900
C2307       C  0.66839137  0.56990560  0.92184388     0.10400
C2308       C  0.67435006  0.55694522  0.94017824    -0.06700
C2309       C  0.66463116  0.53630043  0.92904475    -0.17900
C2310       C  0.64965367  0.52858277  0.89982498     0.10400
S2311       S  0.67743900  0.59587501  0.93670941    -0.32900
S2312       S  0.63661254  0.50147747  0.89091681    -0.32900
H2313       H  0.61729559  0.49952893  0.88562573     0.28500
H2314       H  0.67422656  0.59104350  0.97671613     0.28400
H2315       H  0.65018028  0.57267615  0.87717182     0.19000
H2316       H  0.66849404  0.52598699  0.94358397     0.19000
C2317       C  0.55812360  0.57872685  0.72359005    -0.06800
C2318       C  0.55552159  0.57183873  0.76243940    -0.17900
C2319       C  0.56365006  0.55997429  0.77583798     0.10400
C2320       C  0.57495249  0.55490421  0.75012505    -0.06700
C2321       C  0.57753319  0.56163976  0.71127734    -0.17900
C2322       C  0.56967399  0.57379135  0.69795346     0.10400
S2323       S  0.55821380  0.55100957  0.82555274    -0.32900
S2324       S  0.57587927  0.58320994  0.64864482    -0.32900
H2325       H  0.58183231  0.60342968  0.65893607     0.28500
H2326       H  0.55538991  0.53157047  0.81724278     0.28400
H2327       H  0.54664455  0.57530426  0.78252518     0.19000
H2328       H  0.58647824  0.55810826  0.69148298     0.19000
C2329       C  0.97953839  0.56083352  0.76008020    -0.06800
C2330       C  0.98589027  0.57156121  0.72473134    -0.17900
C2331       C  0.00646164  0.58233789  0.71411047     0.10400
C2332       C  0.02126853  0.58200373  0.73886826    -0.06700
C2333       C  0.01480265  0.57115077  0.77426854    -0.17900
C2334       C  0.99421842  0.56058842  0.78506000     0.10400
S2335       S  0.01251654  0.59614576  0.66869330    -0.32900
S2336       S  0.98766336  0.54640409  0.83015103    -0.32900
H2337       H  0.97020146  0.52924091  0.81507202     0.28500
H2338       H  0.02566705  0.61502813  0.68652272     0.28400
H2339       H  0.97474131  0.57198002  0.70551509     0.19000
H2340       H  0.02582983  0.57063190  0.79364846     0.19000
C2341       C  0.09804802  0.85170124  0.87254198    -0.06800
C2342       C  0.11404561  0.85072949  0.85400458    -0.17900
C2343       C  0.13329057  0.86807660  0.84931253     0.10400
C2344       C  0.13705611  0.88705199  0.86440726    -0.06700
C2345       C  0.12064848  0.88823563  0.88075645    -0.17900
C2346       C  0.10119917  0.87088814  0.88466929     0.10400
S2347       S  0.15237777  0.86453013  0.82519249    -0.32900
S2348       S  0.08068972  0.87362722  0.90494510    -0.32900
H2349       H  0.09133877  0.89507498  0.90688068     0.28500
H2350       H  0.15800938  0.88100733  0.79945823     0.28400
H2351       H  0.11175420  0.83616347  0.84397427     0.19000
H2352       H  0.12321227  0.90273539  0.89167907     0.19000
C2353       C  0.22904668  0.79838292  0.97826052    -0.06800
C2354       C  0.22355801  0.79380650  0.50888354    -0.17900
C2355       C  0.20534408  0.77497913  0.51004676     0.10400
C2356       C  0.19099948  0.76141488  0.97749993    -0.06700
C2357       C  0.20135801  0.77037746  0.94256416    -0.17900
C2358       C  0.22008547  0.78865255  0.94246059     0.10400
S2359       S  0.19505784  0.76457243  0.55740426    -0.32900
S2360       S  0.23080726  0.79931428  0.89542842    -0.32900
H2361       H  0.23246160  0.81829401  0.90356468     0.28500
H2362       H  0.18958472  0.74452317  0.54686289     0.28400
H2363       H  0.23030690  0.80149943  0.53613386     0.19000
H2364       H  0.19436148  0.76365359  0.91480702     0.19000
C2365       C  0.12449452  0.67736534  0.55609087    -0.06800
C2366       C  0.11213990  0.65649227  0.54806237    -0.17900
C2367       C  0.10472517  0.64206686  0.57814241     0.10400
C2368       C  0.10951180  0.64865746  0.61726129    -0.06700
C2369       C  0.12275075  0.66944558  0.62502879    -0.17900
C2370       C  0.13039341  0.68380792  0.59491303     0.10400
S2371       S  0.08952351  0.61557538  0.56461760    -0.32900
S2372       S  0.14780728  0.71002602  0.60780270    -0.32900
H2373       H  0.15962167  0.71450459  0.57371819     0.28500
H2374       H  0.09778313  0.60853156  0.59335334     0.28400
H2375       H  0.10781261  0.65142136  0.51821426     0.19000
H2376       H  0.12683453  0.67464425  0.65487516     0.19000
C2377       C  0.10360889  0.65190856  0.80430414    -0.06800
C2378       C  0.09434906  0.66372028  0.81061625    -0.17900
C2379       C  0.10024020  0.67751814  0.84161130     0.10400
C2380       C  0.11511600  0.67898023  0.86837485    -0.06700
C2381       C  0.12479847  0.66764061  0.86148518    -0.17900
C2382       C  0.11958757  0.65454437  0.82944596     0.10400
S2383       S  0.08890850  0.69346478  0.84398044    -0.32900
S2384       S  0.13448932  0.64235519  0.82182546    -0.32900
H2385       H  0.13757195  0.64724778  0.78183130     0.28500
H2386       H  0.10707735  0.71118666  0.85487823     0.28400
H2387       H  0.08251898  0.66238765  0.79101215     0.19000
H2388       H  0.13660611  0.66900964  0.88119837     0.19000
C2389       C  0.09855473  0.74477420  0.94989817    -0.06800
C2390       C  0.10952321  0.76617305  0.94723627    -0.17900
C2391       C  0.09989956  0.77717578  0.93712507     0.10400
C2392       C  0.07865388  0.76666854  0.93028539    -0.06700
C2393       C  0.06761359  0.74531629  0.93336516    -0.17900
C2394       C  0.07730241  0.73426638  0.94266413     0.10400
S2395       S  0.11579322  0.80440836  0.93106637    -0.32900
S2396       S  0.06187644  0.70683089  0.94234010    -0.32900
H2397       H  0.07607917  0.70395530  0.92107488     0.28500
H2398       H  0.10534095  0.80567751  0.89822076     0.28400
H2399       H  0.12585685  0.77439988  0.95220260     0.19000
H2400       H  0.05132268  0.73713493  0.92788161     0.19000
C2401       C  0.89095550  0.75203080  0.65374787    -0.06800
C2402       C  0.87299459  0.73534456  0.66834230    -0.17900
C2403       C  0.85403177  0.73403484  0.66405367     0.10400
C2404       C  0.85272518  0.74998129  0.64517742    -0.06700
C2405       C  0.87084693  0.76719835  0.63243498    -0.17900
C2406       C  0.88987906  0.76857741  0.63719540     0.10400
S2407       S  0.83209793  0.71084345  0.68088741    -0.32900
S2408       S  0.91214773  0.79207270  0.62265323    -0.32900
H2409       H  0.92402359  0.79246194  0.65459198     0.28500
H2410       H  0.82193087  0.70678147  0.64476671     0.28400
H2411       H  0.87349128  0.72256691  0.68138249     0.19000
H2412       H  0.87023245  0.77979507  0.61883782     0.19000
C2413       C  0.98734304  0.77052221  0.56413868    -0.06800
C2414       C  0.99771614  0.75997199  0.55569356    -0.17900
C2415       C  0.00745541  0.76285792  0.02039130     0.10400
C2416       C  0.01218428  0.78096470  0.00008082    -0.06700
C2417       C  0.00487415  0.79341931  0.01454676    -0.17900
C2418       C  0.99224447  0.78834036  0.54251217     0.10400
S2419       S  0.01786856  0.74681380  0.00769564    -0.32900
S2420       S  0.98176512  0.80448163  0.55333645    -0.32900
H2421       H  0.98403027  0.80378174  0.59398847     0.28500
H2422       H  0.03764913  0.76320073  0.00033527     0.28400
H2423       H  0.99458561  0.74658755  0.57252304     0.19000
H2424       H  0.00878965  0.80757323  0.99975530     0.19000
C2425       C  0.97689426  0.76310021  0.74683128    -0.06800
C2426       C  0.98634910  0.78380194  0.75758848    -0.17900
C2427       C  0.00108950  0.79184436  0.78724310     0.10400
C2428       C  0.00634245  0.77888546  0.80755943    -0.06700
C2429       C  0.99670891  0.75819531  0.79719655    -0.17900
C2430       C  0.98201764  0.75013361  0.76770965     0.10400
S2431       S  0.01351350  0.81893537  0.79577192    -0.32900
S2432       S  0.97046937  0.72312086  0.75885805    -0.32900
H2433       H  0.95042905  0.71969112  0.76031231     0.28500
H2434       H  0.03318525  0.82150332  0.79877093     0.28400
H2435       H  0.98284519  0.79405330  0.74177960     0.19000
H2436       H  0.00038110  0.74799881  0.81278146     0.19000
C2437       C  0.80268705  0.57433968  0.51951528    -0.06800
C2438       C  0.78692288  0.56001865  0.54348643    -0.17900
C2439       C  0.76787530  0.55895110  0.54553303     0.10400
C2440       C  0.76450096  0.57277216  0.52329592    -0.06700
C2441       C  0.77987538  0.58619325  0.49760737    -0.17900
C2442       C  0.79859657  0.58685945  0.49489553     0.10400
S2443       S  0.74842576  0.54008228  0.57716523    -0.32900
S2444       S  0.82030037  0.60615254  0.96017591    -0.32900
H2445       H  0.82692984  0.59356317  0.94328699     0.28500
H2446       H  0.76010285  0.53210183  0.59291492     0.28400
H2447       H  0.78979010  0.55007990  0.56177705     0.19000
H2448       H  0.77957577  0.59521351  0.97418669     0.19000
C2449       C  0.89473475  0.55098208  0.69530058    -0.06800
C2450       C  0.90834357  0.56899360  0.67548447    -0.17900
C2451       C  0.90189589  0.57620579  0.64422651     0.10400
C2452       C  0.88157277  0.56459004  0.63063427    -0.06700
C2453       C  0.86790621  0.54670066  0.65066256    -0.17900
C2454       C  0.87410063  0.54007734  0.68328349     0.10400
S2455       S  0.91997716  0.60101322  0.62505802    -0.32900
S2456       S  0.85465238  0.51839123  0.70951032    -0.32900
H2457       H  0.86143381  0.52738108  0.74648437     0.28500
H2458       H  0.90581332  0.60784122  0.62325991     0.28400
H2459       H  0.92409947  0.57781385  0.68489092     0.19000
H2460       H  0.85214163  0.53797397  0.64129026     0.19000
C2461       C  0.88320614  0.56526486  0.94196008    -0.06800
C2462       C  0.87148580  0.54486115  0.92989370    -0.17900
C2463       C  0.87779238  0.53717823  0.89916371     0.10400
C2464       C  0.89602453  0.55031847  0.87885270    -0.06700
C2465       C  0.90762128  0.57078749  0.89070978    -0.17900
C2466       C  0.90165128  0.57829028  0.92221940     0.10400
S2467       S  0.86241461  0.51029006  0.88901917    -0.32900
S2468       S  0.91890847  0.60423524  0.93695577    -0.32900
H2469       H  0.91736445  0.59963005  0.97704480     0.28500
H2470       H  0.87918576  0.50715848  0.88700031     0.28400
H2471       H  0.85742395  0.53465183  0.94503690     0.19000
H2472       H  0.92172287  0.58103571  0.87572412     0.19000
C2473       C  0.91198346  0.68449612  0.60693517    -0.06800
C2474       C  0.89488872  0.66965367  0.62720844    -0.17900
C2475       C  0.88368361  0.64957439  0.61356462     0.10400
C2476       C  0.89005415  0.64382302  0.57931292    -0.06700
C2477       C  0.90744825  0.65872131  0.55949877    -0.17900
C2478       C  0.91850456  0.67884437  0.57300237     0.14000
S2479       S  0.86099121  0.63251225  0.64049115    -0.32900
S2480       S  0.94131008  0.69630493  0.54663117    -0.32900
H2481       H  0.95269826  0.70653456  0.57998000     0.28500
H2482       H  0.84852037  0.62580955  0.60705552     0.28400
H2483       H  0.88973008  0.67392467  0.65313968     0.19000
H2484       H  0.91278674  0.65460888  0.53363384     0.19000
C2485       C  0.80798298  0.23003319  0.52193059    -0.06800
C2486       C  0.80316484  0.21312518  0.98792198    -0.17900
C2487       C  0.78463304  0.19461334  0.98644221     0.10400
C2488       C  0.77039112  0.19266375  0.51931288    -0.06700
C2489       C  0.77423561  0.20716925  0.54849407    -0.17900
C2490       C  0.79281717  0.22550873  0.55051264     0.10400
S2491       S  0.78147333  0.17736842  0.94736315    -0.32900
S2492       S  0.79674327  0.24139949  0.59247455    -0.32900
H2493       H  0.81539530  0.24279962  0.60270163     0.28500
H2494       H  0.76115314  0.17203375  0.93959380     0.28400
H2495       H  0.81482495  0.21605176  0.96645678     0.19000
H2496       H  0.76317920  0.20369927  0.57154601     0.19000
C2497       C  0.89682059  0.14030896  0.64248384    -0.06800
C2498       C  0.88358525  0.13488891  0.67457761    -0.17900
C2499       C  0.86551400  0.11597595  0.67639959     0.10400
C2500       C  0.86016190  0.10203633  0.64505652    -0.06700
C2501       C  0.87390299  0.10706769  0.61386510    -0.17900
C2502       C  0.89185650  0.12606455  0.61183581     0.10400
S2503       S  0.85014527  0.11065974  0.71967914    -0.32900
S2504       S  0.90658017  0.13178927  0.56756329    -0.32900
H2505       H  0.90844226  0.15109858  0.56263047     0.28500
H2506       H  0.84483367  0.09001607  0.72172557     0.28400
H2507       H  0.88732530  0.14551317  0.69854598     0.19000
H2508       H  0.86999546  0.09668298  0.58943636     0.19000
C2509       C  0.89935758  0.25334564  0.57683635    -0.06800
C2510       C  0.91185615  0.25043207  0.55053510    -0.17900
C2511       C  0.92253267  0.24064618  0.56188878     0.10400
C2512       C  0.92026686  0.23287143  0.60028374    -0.06700
C2513       C  0.90833377  0.23640926  0.62697956    -0.17900
C2514       C  0.89815256  0.24676167  0.61593992     0.10400
S2515       S  0.93928875  0.23926997  0.52625314    -0.32900
S2516       S  0.88444469  0.25154988  0.65352128    -0.32900
H2517       H  0.89093154  0.27164283  0.64129997     0.28500
H2518       H  0.95523389  0.24419749  0.55292590     0.28400
H2519       H  0.91331154  0.25577853  0.52071796     0.19000
H2520       H  0.90681656  0.23097912  0.65674504     0.19000
C2521       C  0.19674389  0.42629173  0.98022050    -0.06800
C2522       C  0.20023816  0.41237464  0.51033517    -0.17900
C2523       C  0.21834448  0.41165787  0.51035448     0.10400
C2524       C  0.23325712  0.42477880  0.97794527    -0.06700
C2525       C  0.22970535  0.43651370  0.95076517    -0.17900
C2526       C  0.21176608  0.43757098  0.95167922     0.10400
S2527       S  0.22367876  0.40114249  0.55293672    -0.32900
S2528       S  0.20840134  0.45326226  0.91606665    -0.32900
H2529       H  0.22857119  0.46350590  0.90200516     0.28500
H2530       H  0.24481652  0.41504973  0.55246290     0.28400
H2531       H  0.18993107  0.40588080  0.53489786     0.19000
H2532       H  0.24069735  0.44426067  0.92756044     0.19000
C2533       C  0.14047322  0.24523292  0.86036330    -0.06800
C2534       C  0.12360503  0.22840279  0.87762206    -0.17900
C2535       C  0.10462806  0.22723078  0.87998103     0.10400
C2536       C  0.10232570  0.24331644  0.86482998    -0.06700
C2537       C  0.11902125  0.25976950  0.84622753    -0.17900
C2538       C  0.13808196  0.26112216  0.84453652     0.10400
S2539       S  0.08412028  0.20482503  0.90262766    -0.32900
S2540       S  0.15904006  0.28441386  0.82533179    -0.32900
H2541       H  0.17251489  0.28690750  0.85590108     0.28500
H2542       H  0.06906796  0.20336745  0.87664875     0.28400
H2543       H  0.12525042  0.21608105  0.88969881     0.19000
H2544       H  0.11761487  0.27240298  0.83511039     0.19000
C2545       C  0.01515446  0.23316668  0.98249260    -0.06800
C2546       C  0.00888909  0.21380638  0.99829986    -0.17900
C2547       C  0.99446787  0.20419248  0.52826395     0.10400
C2548       C  0.99079882  0.21777420  0.55032238    -0.06700
C2549       C  0.00147509  0.23864455  0.54105769    -0.17900
C2550       C  0.00845665  0.24561536  0.00034263     0.10400
S2551       S  0.98354420  0.17755544  0.54031385    -0.32900
S2552       S  0.01652993  0.27130517  0.98475286    -0.32900
H2553       H  0.03723219  0.27701160  0.98134254     0.28500
H2554       H  0.98527761  0.18069443  0.58094210     0.28400
H2555       H  0.01408596  0.20419245  0.98528029     0.19000
H2556       H  0.99915354  0.24929508  0.55828971     0.19000
C2557       C  0.98292032  0.21293226  0.73526616    -0.06800
C2558       C  0.98742117  0.23109856  0.75447212    -0.17900
C2559       C  0.00124042  0.23875555  0.78538338     0.10400
C2560       C  0.01131261  0.22829260  0.79764902    -0.06700
C2561       C  0.00659444  0.20989060  0.77924838    -0.17900
C2562       C  0.99256597  0.20209200  0.74834837     0.10400
S2563       S  0.00489851  0.26176916  0.80834440    -0.32900
S2564       S  0.98813868  0.17857716  0.72666717    -0.32900
H2565       H  0.96677352  0.16920947  0.72941438     0.28500
H2566       H  0.00444149  0.25478290  0.84661635     0.28400
H2567       H  0.98018753  0.23962650  0.74525481     0.19000
H2568       H  0.01415096  0.20168090  0.78855249     0.19000
C2569       C  0.08859227  0.31283769  0.91675813    -0.06800
C2570       C  0.09078834  0.31740062  0.95676211    -0.17900
C2571       C  0.10152079  0.33753073  0.97008111     0.10400
C2572       C  0.11003001  0.35374139  0.94283286    -0.06700
C2573       C  0.10824815  0.34915822  0.90278779    -0.17900
C2574       C  0.09781299  0.32898131  0.88948130     0.10400
S2575       S  0.11281929  0.34034089  0.51884724    -0.32900
S2576       S  0.09729237  0.32498495  0.83754461    -0.32900
H2577       H  0.10050065  0.30828197  0.84043002     0.28500
H2578       H  0.13262764  0.35668597  0.51149265     0.28400
H2579       H  0.08397547  0.30514957  0.97799763     0.19000
H2580       H  0.11487903  0.36140826  0.88153506     0.19000
C2581       C  0.90777198  0.43602810  0.79922219    -0.06800
C2582       C  0.89690533  0.43942478  0.76980329    -0.17900
C2583       C  0.89675165  0.45778702  0.76748011     0.10400
C2584       C  0.90782041  0.47341324  0.79509654    -0.06700
C2585       C  0.91744888  0.46939660  0.82609155    -0.17900
C2586       C  0.91725295  0.45087594  0.82883543     0.10400
S2587       S  0.88199688  0.46013929  0.72879178    -0.32900
S2588       S  0.92912799  0.44715320  0.87116321    -0.32900
H2589       H  0.91428878  0.42640756  0.87555664     0.28500
H2590       H  0.89946234  0.47465109  0.70851474     0.28400
H2591       H  0.88913360  0.42803745  0.74733599     0.19000
H2592       H  0.92548138  0.48088764  0.84826579     0.19000
C2593       C  0.89553678  0.34850024  0.68829014    -0.06800
C2594       C  0.89897875  0.35611525  0.65001875    -0.17900
C2595       C  0.89219601  0.34290296  0.61791820     0.10400
C2596       C  0.88166620  0.32157496  0.62418323    -0.06700
C2597       C  0.87750714  0.31400993  0.66245074    -0.17900
C2598       C  0.88432564  0.32718881  0.69448498     0.10400
S2599       S  0.89725539  0.35417859  0.56989110    -0.32900
S2600       S  0.87809343  0.31583530  0.74245089    -0.32900
H2601       H  0.87504712  0.33101393  0.75932876     0.28500
H2602       H  0.87901288  0.33885269  0.55307952     0.28400
H2603       H  0.90736530  0.37245933  0.64508333     0.19000
H2604       H  0.86932310  0.29766921  0.66747639     0.19000
C2605       C  0.89546652  0.34708297  0.87342332    -0.06800
C2606       C  0.90944718  0.34359141  0.89408276    -0.17900
C2607       C  0.90325910  0.32939675  0.92444410     0.10400
C2608       C  0.88234355  0.31760540  0.93417502    -0.06700
C2609       C  0.86826137  0.32098731  0.91366803    -0.17900
C2610       C  0.87454138  0.33561934  0.88380283     0.10400
S2611       S  0.92310398  0.32801490  0.95085198    -0.32900
S2612       S  0.85503852  0.33879613  0.86046005    -0.32900
H2613       H  0.86520904  0.35998199  0.86717557     0.28500
H2614       H  0.91678016  0.32004681  0.47577620     0.28400
H2615       H  0.92555060  0.35226218  0.88703039     0.19000
H2616       H  0.85220678  0.31224235  0.92111067     0.19000
C2617       C  0.09723266  0.52780607  0.70347044    -0.06800
C2618       C  0.10491871  0.54116208  0.73544576    -0.17900
C2619       C  0.10424611  0.55923065  0.73652155     0.10400
C2620       C  0.09605167  0.56450431  0.70447846    -0.06700
C2621       C  0.08982144  0.55197450  0.67127269    -0.17900
C2622       C  0.09060083  0.53392723  0.67012814     0.10400
S2623       S  0.11232667  0.57370782  0.78118818    -0.32900
S2624       S  0.08275087  0.51951557  0.62538860    -0.32900
H2625       H  0.09844664  0.51473692  0.62623165     0.28500
H2626       H  0.09391607  0.57375574  0.78610846     0.28400
H2627       H  0.11028314  0.53689781  0.76110471     0.19000
H2628       H  0.08402739  0.55613141  0.64608879     0.19000
C2629       C  0.10564741  0.45405623  0.82295802    -0.06800
C2630       C  0.09089232  0.43776706  0.84540701    -0.17900
C2631       C  0.09624056  0.43042295  0.87803581     0.10400
C2632       C  0.11703491  0.43898747  0.88818185    -0.06700
C2633       C  0.13176200  0.45568310  0.86660689    -0.17900
C2634       C  0.12634996  0.46343483  0.83458678     0.10400
S2635       S  0.07564643  0.41042119  0.90565296    -0.32900
S2636       S  0.14675682  0.48485369  0.80951692    -0.32900
H2637       H  0.13744823  0.49684424  0.81273510     0.28500
H2638       H  0.08393696  0.41923978  0.94211379     0.28400
H2639       H  0.07490027  0.43061593  0.83762994     0.19000
H2640       H  0.14775219  0.46259404  0.87426314     0.19000
C2641       C  0.10632189  0.44658052  0.63554926    -0.06800
C2642       C  0.11927014  0.46068468  0.60754174    -0.17900
C2643       C  0.12568699  0.45447609  0.57478871     0.10400
C2644       C  0.11961277  0.43366444  0.57012010    -0.06700
C2645       C  0.10682318  0.41952998  0.59825056    -0.17900
C2646       C  0.10036689  0.42574119  0.63108296     0.10400
S2647       S  0.14033269  0.47370788  0.53880100    -0.32900
S2648       S  0.08528249  0.40641892  0.66661914    -0.32900
H2649       H  0.09594277  0.41861617  0.69889899     0.28500
H2650       H  0.10891330  0.44607598  0.99708294     0.28400
H2651       H  0.12379044  0.47665959  0.61023258     0.19000
H2652       H  0.10219545  0.40354541  0.59512089     0.19000
C2653       C  0.98075835  0.42215256  0.75632864    -0.06800
C2654       C  0.98730474  0.42365660  0.71748516    -0.17900
C2655       C  0.00806689  0.43441108  0.70780854     0.10400
C2656       C  0.02279566  0.44347343  0.73774320    -0.06700
C2657       C  0.01618298  0.44259162  0.77631888    -0.17900
C2658       C  0.99547723  0.43236839  0.78584032     0.10400
S2659       S  0.01460923  0.43644527  0.65680210    -0.32900
S2660       S  0.98901032  0.43355353  0.83601383    -0.32900
H2661       H  0.97284085  0.43692608  0.82684417     0.28500
H2662       H  0.03037558  0.45693860  0.65918086     0.28400
H2663       H  0.97616894  0.41632161  0.69442779     0.19000
H2664       H  0.02725777  0.44978473  0.79952853     0.19000
loop_ 
_geom_bond_atom_site_label_1 
_geom_bond_atom_site_label_2 
_geom_bond_distance 
_geom_bond_site_symmetry_2 
_ccdc_geom_bond_type 
In1           O3   2.231       .  S
In1           O4   2.252       .  S
In1          O12   2.233       .  S
In1           O6   2.246       .  S
In1           O8   2.264       .  S
In1           O9   2.244       .  S
In1          O10   2.226       .  S
In1          O13   2.241       .  S
C2            O8   1.262       .  A
C2           O10   1.259       .  A
C2         C1324   1.483       .  S
O3           C11   1.258       .  A
O4           C11   1.259       .  A
C5           O12   1.260       .  A
C5            O6   1.261       .  A
C5         C1309   1.476       .  S
C7            O9   1.261       .  A
C7           O13   1.260       .  A
C7         C1285   1.479       .  S
C11        C1297   1.484       .  S
In14         O16   2.244       .  S
In14         O17   2.254       .  S
In14         O25   2.255       .  S
In14         O19   2.234       .  S
In14         O21   2.241       .  S
In14         O22   2.259       .  S
In14         O23   2.257       .  S
In14         O26   2.247       .  S
C15          O21   1.259       .  A
C15          O23   1.260       .  A
C15        C1321   1.481       .  S
O16          C24   1.259       .  A
O17          C24   1.261       .  A
C18          O25   1.262       .  A
C18          O19   1.261       .  A
C18        C1273   1.489       .  S
C20          O22   1.261       .  A
C20          O26   1.258       .  A
C20        C1249   1.486       .  S
C24        C1261   1.478       .  S
In27         O29   2.238       .  S
In27         O30   2.243       .  S
In27         O38   2.261       .  S
In27         O32   2.250       .  S
In27         O34   2.246       .  S
In27         O35   2.246       .  S
In27         O36   2.242       .  S
In27         O39   2.257       .  S
C28          O34   1.262       .  A
C28          O36   1.260       .  A
C28        C1237   1.480       .  S
O29          C37   1.260       .  A
O30          C37   1.261       .  A
C31          O38   1.261       .  A
C31          O32   1.259       .  A
C31        C1228   1.486       .  S
C33          O35   1.259       .  A
C33          O39   1.261       .  A
C33        C1204   1.484       .  S
C37        C1213   1.476       .  S
In40         O42   2.229       .  S
In40         O43   2.251       .  S
In40         O51   2.247       .  S
In40         O47   2.241       .  S
In40         O48   2.231       .  S
In40         O49   2.232       .  S
In40       O1377   2.244       .  S
In40       O1384   2.249       .  S
C41          O47   1.262       .  A
C41          O49   1.260       .  A
C41        C1240   1.479       .  S
O42          C50   1.259       .  A
O43          C50   1.261       .  A
C44          O45   1.260       .  A
C44        O1383   1.260       .  A
C44        C1312   1.475       .  S
O45       In1372   2.245   1_554  S
C46          O48   1.259       .  A
C46        O1384   1.262       .  A
C46        C1189   1.486       .  S
C50        C1300   1.478       .  S
O51        C1376   1.260       .  A
O52       In1372   2.255   1_554  S
O52        C1378   1.261   1_554  A
In53         O55   2.237       .  S
In53         O56   2.235       .  S
In53         O64   2.260       .  S
In53         O58   2.254       .  S
In53         O60   2.243       .  S
In53         O61   2.250       .  S
In53         O62   2.252       .  S
In53         O65   2.260       .  S
C54          O60   1.261       .  A
C54          O62   1.259       .  A
C54        C1180   1.480       .  S
O55          C63   1.262       .  A
O56          C63   1.261       .  A
C57          O64   1.260       .  A
C57          O58   1.259       .  A
C57        C1225   1.485       .  S
C59          O61   1.257       .  A
C59          O65   1.260       .  A
C59        C1165   1.486       .  S
C63        C1216   1.479       .  S
In66         O68   2.247       .  S
In66         O69   2.244       .  S
In66         O77   2.259   1_554  S
In66         O73   2.262       .  S
In66         O74   2.240       .  S
In66         O75   2.237       .  S
In66         O78   2.256       .  S
In66       O1403   2.236   1_554  S
C67          O73   1.262       .  A
C67          O75   1.258       .  A
C67        C1177   1.490       .  S
O68          C76   1.260       .  A
O69          C76   1.260       .  A
C70          O71   1.261       .  A
C70        O1409   1.260       .  A
C70        C1276   1.480       .  S
O71       In1398   2.241       .  S
C72          O74   1.257       .  A
C72          O78   1.260       .  A
C72        C1153   1.482       .  S
C76        C1264   1.477       .  S
O77        C1402   1.261       .  A
In79         O81   2.239       .  S
In79         O82   2.257       .  S
In79         O90   2.245       .  S
In79         O86   2.244       .  S
In79         O87   2.251       .  S
In79         O88   2.234       .  S
In79         O91   2.231       .  S
In79       O1416   2.252   1_554  S
C80          O86   1.263       .  A
C80          O88   1.260       .  A
C80        C1144   1.482       .  S
O81          C89   1.258       .  A
O82          C89   1.261       .  A
C83          O84   1.260       .  A
C83        O1422   1.261       .  A
C83        C1129   1.487       .  S
O84       In1411   2.246       .  S
C85          O87   1.262       .  A
C85          O91   1.260       .  A
C85        C1120   1.477       .  S
C89        C1105   1.490       .  S
O90        C1415   1.259   1_554  A
In92         O94   2.252       .  S
In92         O95   2.242       .  S
In92        O103   2.256       .  S
In92         O97   2.238       .  S
In92         O99   2.246       .  S
In92        O100   2.250       .  S
In92        O101   2.232       .  S
In92        O104   2.225       .  S
C93          O99   1.262       .  A
C93         O101   1.259       .  A
C93        C1141   1.476       .  S
O94         C102   1.261       .  A
O95         C102   1.260       .  A
C96         O103   1.261       .  A
C96          O97   1.257       .  A
C96        C1093   1.488       .  S
C98         O100   1.262       .  A
C98         O104   1.260       .  A
C98        C1081   1.482       .  S
C102       C1069   1.484       .  S
In105       O107   2.248       .  S
In105       O108   2.237       .  S
In105       O116   2.245       .  S
In105       O112   2.246       .  S
In105       O113   2.249       .  S
In105       O114   2.239       .  S
In105       O117   2.230       .  S
In105      O1442   2.238       .  S
C106        O112   1.260       .  A
C106        O114   1.260       .  A
C106       C1057   1.478       .  S
O107        C115   1.260       .  A
O108        C115   1.261       .  A
C109        O110   1.260       .  A
C109       O1448   1.258   1_554  A
C109       C1033   1.477       .  S
O110      In1437   2.251   1_554  S
C111        O113   1.264       .  A
C111        O117   1.260       .  A
C111       C1048   1.483       .  S
C115       C1024   1.482       .  S
O116       C1441   1.258       .  A
In118       O120   2.244       .  S
In118       O121   2.244       .  S
In118       O129   2.257       .  S
In118       O123   2.241       .  S
In118       O125   2.243       .  S
In118       O126   2.261       .  S
In118       O127   2.242       .  S
In118       O130   2.227       .  S
C119        O125   1.261       .  A
C119        O127   1.260       .  A
C119       C1060   1.474       .  S
O120        C128   1.262       .  A
O121        C128   1.261       .  A
C122        O129   1.259       .  A
C122        O123   1.258       .  A
C122       C1096   1.479       .  S
C124        O126   1.262       .  A
C124        O130   1.257       .  A
C124       C1084   1.478       .  S
C128       C1009   1.485       .  S
In131       O133   2.254       .  S
In131       O134   2.245       .  S
In131       O142   2.262       .  S
In131       O136   2.236       .  S
In131       O138   2.251       .  S
In131       O139   2.246       .  S
In131       O140   2.245       .  S
In131       O143   2.230       .  S
C132        O138   1.260       .  A
C132        O140   1.259       .  A
C132        C997   1.478       .  S
O133        C141   1.261       .  A
O134        C141   1.259       .  A
C135        O142   1.261       .  A
C135        O136   1.260       .  A
C135       C1132   1.487       .  S
C137        O139   1.262       .  A
C137        O143   1.261       .  A
C137       C1117   1.483       .  S
C141       C1252   1.488       .  S
In144       O146   2.259       .  S
In144       O147   2.238       .  S
In144       O155   2.238       .  S
In144       O149   2.251       .  S
In144       O151   2.251       .  S
In144       O152   2.231       .  S
In144       O153   2.240       .  S
In144       O156   2.244       .  S
C145        O151   1.259       .  A
C145        O153   1.259       .  A
C145       C1000   1.486       .  S
O146        C154   1.260       .  A
O147        C154   1.254       .  A
C148        O155   1.259       .  A
C148        O149   1.260       .  A
C148       C1036   1.473       .  S
C150        O152   1.260       .  A
C150        O156   1.263       .  A
C150       C1045   1.482       .  S
C154       C1288   1.485       .  S
In157       O159   2.244       .  S
In157       O160   2.247       .  S
In157       O168   2.261       .  S
In157       O162   2.234       .  S
In157       O164   2.247       .  S
In157       O165   2.259       .  S
In157       O166   2.247       .  S
In157       O169   2.251       .  S
C158        O164   1.261       .  A
C158        O166   1.260       .  A
C158        C988   1.478       .  S
O159        C167   1.260       .  A
O160        C167   1.263       .  A
C161        O168   1.260       .  A
C161        O162   1.259       .  A
C161        C973   1.479       .  S
C163        O165   1.261       .  A
C163        O169   1.259       .  A
C163        C949   1.486       .  S
C167        C961   1.483       .  S
In170       O172   2.255       .  S
In170       O173   2.250       .  S
In170       O181   2.249       .  S
In170       O175   2.231       .  S
In170       O177   2.246       .  S
In170       O178   2.252       .  S
In170       O179   2.247       .  S
In170       O182   2.244       .  S
C171        O177   1.259       .  A
C171        O179   1.260       .  A
C171        C985   1.484       .  S
O172        C180   1.259       .  A
O173        C180   1.261       .  A
C174        O181   1.262       .  A
C174        O175   1.259       .  A
C174        C937   1.482       .  S
C176        O178   1.261       .  A
C176        O182   1.258       .  A
C176        C913   1.481       .  S
C180        C925   1.483       .  S
In183       O185   2.237       .  S
In183       O186   2.261       .  S
In183       O194   2.260   1_554  S
In183       O190   2.248       .  S
In183       O191   2.255       .  S
In183       O192   2.244       .  S
In183       O195   2.260   1_554  S
In183      O1520   2.236   1_554  S
C184        O190   1.261       .  A
C184        O192   1.261       .  A
C184        C901   1.481       .  S
O185        C193   1.259       .  A
O186        C193   1.263       .  A
C187        O188   1.256       .  A
C187       O1526   1.260       .  A
C187        C976   1.483       .  S
O188      In1515   2.233       .  S
C189        O191   1.259       .  A
C189        O195   1.260   1_554  A
C189       C1108   1.487       .  S
C193        C964   1.485       .  S
O194       C1519   1.261       .  A
In196       O198   2.229       .  S
In196       O199   2.260       .  S
In196       O207   2.257       .  S
In196       O201   2.234       .  S
In196       O203   2.247       .  S
In196       O204   2.253       .  S
In196       O205   2.244       .  S
In196       O208   2.243       .  S
C197        O203   1.261       .  A
C197        O205   1.260       .  A
C197        C904   1.480       .  S
O198        C206   1.259       .  A
O199        C206   1.262       .  A
C200        O207   1.262       .  A
C200        O201   1.260       .  A
C200        C889   1.481       .  S
C202        O204   1.262       .  A
C202        O208   1.258       .  A
C202       C1072   1.487       .  S
C206        C877   1.475       .  S
In209       O211   2.242       .  S
In209       O212   2.252       .  S
In209       O220   2.258       .  S
In209       O214   2.246       .  S
In209       O216   2.250       .  S
In209       O217   2.257       .  S
In209       O218   2.251       .  S
In209       O221   2.249       .  S
C210        O216   1.260       .  A
C210        O218   1.260       .  A
C210        C865   1.484       .  S
O211        C219   1.261       .  A
O212        C219   1.262       .  A
C213        O220   1.259       .  A
C213        O214   1.259       .  A
C213        C892   1.488       .  S
C215        O217   1.260       .  A
C215        O221   1.258       .  A
C215        C853   1.482       .  S
C219        C880   1.477       .  S
In222       O224   2.248       .  S
In222       O225   2.257       .  S
In222       O233   2.253       .  S
In222       O229   2.247       .  S
In222       O230   2.257       .  S
In222       O231   2.257       .  S
In222      O1559   2.232       .  S
In222      O1566   2.249       .  S
C223        O229   1.259       .  A
C223        O231   1.260       .  A
C223        C868   1.482       .  S
O224        C232   1.258       .  A
O225        C232   1.260       .  A
C226        O227   1.261   1_554  A
C226       O1565   1.261   1_554  A
C226        C940   1.487       .  S
O227      In1554   2.234       .  S
C228        O230   1.259       .  A
C228       O1566   1.258       .  A
C228        C841   1.480       .  S
C232        C928   1.482       .  S
O233       C1558   1.263       .  A
O234      In1554   2.249       .  S
O234       C1560   1.258       .  A
In235       O237   2.254       .  S
In235       O238   2.243       .  S
In235       O246   2.269       .  S
In235       O240   2.230       .  S
In235       O242   2.245       .  S
In235       O243   2.244       .  S
In235       O244   2.246       .  S
In235       O247   2.240       .  S
C236        O242   1.261       .  A
C236        O244   1.258       .  A
C236        C829   1.485       .  S
O237        C245   1.261       .  A
O238        C245   1.259       .  A
C239        O246   1.262       .  A
C239        O240   1.257       .  A
C239        C817   1.483       .  S
C241        O243   1.260       .  A
C241        O247   1.259       .  A
C241        C805   1.474       .  S
C245        C952   1.485       .  S
In248       O250   2.247       .  S
In248       O251   2.235       .  S
In248       O259   2.250       .  S
In248       O253   2.225       .  S
In248       O255   2.247       .  S
In248       O256   2.249       .  S
In248       O257   2.239       .  S
In248       O260   2.237       .  S
C249        O255   1.261       .  A
C249        O257   1.258       .  A
C249        C832   1.482       .  S
O250        C258   1.261       .  A
O251        C258   1.259       .  A
C252        O259   1.263       .  A
C252        O253   1.260       .  A
C252        C793   1.480       .  S
C254        O256   1.260       .  A
C254        O260   1.258       .  A
C254        C784   1.473       .  S
C258        C916   1.484       .  S
In261       O263   2.248       .  S
In261       O264   2.248       .  S
In261       O272   2.257       .  S
In261       O266   2.239       .  S
In261       O268   2.249       .  S
In261       O269   2.265       .  S
In261       O270   2.238       .  S
In261       O273   2.239       .  S
C262        O268   1.263       .  A
C262        O270   1.261       .  A
C262        C769   1.481       .  S
O263        C271   1.260       .  A
O264        C271   1.262       .  A
C265        O272   1.259       .  A
C265        O266   1.260       .  A
C265        C757   1.490       .  S
C267        O269   1.262       .  A
C267        O273   1.258       .  A
C267        C748   1.480       .  S
C271       C1201   1.484       .  S
In274       O276   2.246       .  S
In274       O277   2.241       .  S
In274       O285   2.245       .  S
In274       O281   2.248       .  S
In274       O282   2.250       .  S
In274       O283   2.246       .  S
In274       O286   2.240       .  S
In274      O1611   2.236       .  S
C275        O281   1.259       .  A
C275        O283   1.260       .  A
C275        C772   1.487       .  S
O276        C284   1.260       .  A
O277        C284   1.262       .  A
C278        O279   1.260       .  A
C278       O1617   1.260       .  A
C278        C796   1.481       .  S
O279      In1606   2.227   1_554  S
C280        O282   1.261       .  A
C280        O286   1.259       .  A
C280        C781   1.476       .  S
C284       C1192   1.482       .  S
O285       C1610   1.260       .  A
In287       O289   2.237       .  S
In287       O290   2.244       .  S
In287       O298   2.252   1_554  S
In287       O294   2.265       .  S
In287       O295   2.238       .  S
In287       O296   2.245       .  S
In287       O299   2.235       .  S
In287      O1624   2.242   1_554  S
C288        O294   1.259       .  A
C288        O296   1.255       .  A
C288        C733   1.483       .  S
O289        C297   1.260       .  A
O290        C297   1.259       .  A
C291        O292   1.261       .  A
C291       O1630   1.261       .  A
C291        C820   1.486       .  S
O292      In1619   2.245       .  S
C293        O295   1.262       .  A
C293        O299   1.262       .  A
C293        C808   1.473       .  S
C297        C721   1.477       .  S
O298       C1623   1.260       .  A
In300       O302   2.254       .  S
In300       O303   2.248       .  S
In300       O311   2.267       .  S
In300       O305   2.236       .  S
In300       O307   2.236       .  S
In300       O308   2.251       .  S
In300       O309   2.247       .  S
In300       O312   2.238       .  S
C301        O307   1.262       .  A
C301        O309   1.261       .  A
C301        C736   1.484       .  S
O302        C310   1.260       .  A
O303        C310   1.258       .  A
C304        O311   1.260       .  A
C304        O305   1.257       .  A
C304        C760   1.481       .  S
C306        O308   1.260       .  A
C306        O312   1.260       .  A
C306        C745   1.483       .  S
C310        C709   1.488       .  S
In313       O315   2.242       .  S
In313       O316   2.247       .  S
In313       O324   2.270   1_554  S
In313       O320   2.245       .  S
In313       O321   2.258       .  S
In313       O322   2.250       .  S
In313       O325   2.229       .  S
In313      O1650   2.244   1_554  S
C314        O320   1.262       .  A
C314        O322   1.260       .  A
C314        C700   1.482       .  S
O315        C323   1.260       .  A
O316        C323   1.263       .  A
C317        O318   1.259       .  A
C317       O1656   1.260       .  A
C317        C688   1.477       .  S
O318      In1645   2.239       .  S
C319        O321   1.262       .  A
C319        O325   1.258       .  A
C319        C673   1.482       .  S
C323       C1156   1.486       .  S
O324       C1649   1.261       .  A
In326       O328   2.249       .  S
In326       O329   2.243       .  S
In326       O337   2.249       .  S
In326       O331   2.239       .  S
In326       O333   2.260       .  S
In326       O334   2.244       .  S
In326       O335   2.249       .  S
In326       O338   2.227       .  S
C327        O333   1.259       .  A
C327        O335   1.257       .  A
C327        C697   1.487       .  S
O328        C336   1.259       .  A
O329        C336   1.260       .  A
C330        O337   1.261       .  A
C330        O331   1.261       .  A
C330        C664   1.480       .  S
C332        O334   1.263       .  A
C332        O338   1.261       .  A
C332        C652   1.471       .  S
C336       C1168   1.484       .  S
In339       O341   2.240       .  S
In339       O342   2.260       .  S
In339       O350   2.258       .  S
In339       O344   2.226       .  S
In339       O346   2.245       .  S
In339       O347   2.254       .  S
In339       O348   2.247       .  S
In339       O351   2.247       .  S
C340        O346   1.260       .  A
C340        O348   1.259       .  A
C340        C640   1.476       .  S
O341        C349   1.257       .  A
O342        C349   1.262       .  A
C343        O350   1.263       .  A
C343        O344   1.261       .  A
C343        C661   1.480       .  S
C345        O347   1.261       .  A
C345        O351   1.259       .  A
C345        C649   1.480       .  S
C349        C856   1.483       .  S
In352       O354   2.252       .  S
In352       O355   2.254       .  S
In352       O359   2.246       .  S
In352       O360   2.244       .  S
In352       O361   2.246       .  S
In352       O364   2.243       .  S
In352      O1695   2.259       .  S
In352      O1689   2.227       .  S
C353        O359   1.259       .  A
C353        O361   1.260       .  A
C353        C637   1.483       .  S
O354        C362   1.259       .  A
O355        C362   1.260       .  A
C356        O363   1.264       .  A
C356        O357   1.261   1_554  A
C356        C616   1.484       .  S
O357      In1684   2.234       .  S
C358        O360   1.261       .  A
C358        O364   1.261       .  A
C358        C625   1.483       .  S
C362        C844   1.484       .  S
O363      In1684   2.251   1_554  S
In365       O367   2.253       .  S
In365       O368   2.234       .  S
In365       O376   2.247       .  S
In365       O370   2.260       .  S
In365       O372   2.250       .  S
In365       O373   2.246       .  S
In365       O374   2.245       .  S
In365       O377   2.242       .  S
C366        O372   1.263       .  A
C366        O374   1.261       .  A
C366        C601   1.479       .  S
O367        C375   1.261       .  A
O368        C375   1.259       .  A
C369        O376   1.256       .  A
C369        O370   1.260       .  A
C369        C613   1.482       .  S
C371        O373   1.259       .  A
C371        O377   1.259       .  A
C371        C628   1.472       .  S
C375        C589   1.485       .  S
In378       O380   2.254       .  S
In378       O381   2.231       .  S
In378       O389   2.251       .  S
In378       O383   2.236       .  S
In378       O385   2.245       .  S
In378       O386   2.260       .  S
In378       O387   2.244       .  S
In378       O390   2.230       .  S
C379        O385   1.260       .  A
C379        O387   1.260       .  A
C379        C604   1.475       .  S
O380        C388   1.262       .  A
O381        C388   1.260       .  A
C382        O389   1.259       .  A
C382        O383   1.260       .  A
C382        C685   1.487       .  S
C384        O386   1.260       .  A
C384        O390   1.258       .  A
C384        C676   1.481       .  S
C388        C577   1.487       .  S
In391       O393   2.217       .  S
In391       O394   2.247       .  S
In391       O402   2.245       .  S
In391       O396   2.241       .  S
In391       O398   2.255       .  S
In391       O399   2.238       .  S
In391       O400   2.235       .  S
In391       O403   2.241       .  S
C392        O398   1.262       .  A
C392        O400   1.259       .  A
C392        C565   1.477       .  S
O393        C401   1.260       .  A
O394        C401   1.263       .  A
C395        O402   1.259       .  A
C395        O396   1.261       .  A
C395        C553   1.472       .  S
C397        O399   1.261       .  A
C397        O403   1.260       .  A
C397        C592   1.481       .  S
C401        C541   1.481       .  S
In404       O406   2.230       .  S
In404       O407   2.257       .  S
In404       O415   2.239       .  S
In404       O409   2.242       .  S
In404       O411   2.248       .  S
In404       O412   2.241       .  S
In404       O413   2.248       .  S
In404       O416   2.254       .  S
C405        O411   1.259       .  A
C405        O413   1.260       .  A
C405        C568   1.476       .  S
O406        C414   1.259       .  A
O407        C414   1.262       .  A
C408        O415   1.259       .  A
C408        O409   1.260       .  A
C408        C532   1.470       .  S
C410        O412   1.262       .  A
C410        O416   1.261       .  A
C410        C580   1.487       .  S
C414        C520   1.477       .  S
In417       O419   2.228       .  S
In417       O420   2.239       .  S
In417       O428   2.242       .  S
In417       O424   2.254       .  S
In417       O425   2.248       .  S
In417       O426   2.241       .  S
In417       O429   2.236       .  S
In417      O1754   2.261   1_554  S
C418        O424   1.261       .  A
C418        O426   1.257       .  A
C418        C508   1.480       .  S
O419        C427   1.261       .  A
O420        C427   1.263       .  A
C421        O422   1.261       .  A
C421       O1760   1.258       .  A
C421        C529   1.475       .  S
O422      In1749   2.256       .  S
C423        O425   1.261       .  A
C423        O429   1.260       .  A
C423        C724   1.478       .  S
C427        C517   1.479       .  S
O428       C1753   1.258   1_554  A
In430       O432   2.235       .  S
In430       O433   2.246       .  S
In430       O441   2.271       .  S
In430       O435   2.235       .  S
In430       O437   2.255       .  S
In430       O438   2.245       .  S
In430       O439   2.245       .  S
In430       O442   2.243       .  S
C431        O437   1.261       .  A
C431        O439   1.257       .  A
C431        C505   1.484       .  S
O432        C440   1.259       .  A
O433        C440   1.260       .  A
C434        O441   1.262       .  A
C434        O435   1.258       .  A
C434        C493   1.482       .  S
C436        O438   1.261       .  A
C436        O442   1.261       .  A
C436        C712   1.482       .  S
C440        C484   1.471       .  S
In443       O445   2.235       .  S
In443       O446   2.250       .  S
In443       O454   2.250       .  S
In443       O448   2.244       .  S
In443       O450   2.270       .  S
In443       O451   2.241       .  S
In443       O452   2.242       .  S
In443       O455   2.248       .  S
C444        O450   1.262       .  A
C444        O452   1.259       .  A
C444        C469   1.486       .  S
O445        C453   1.258       .  A
O446        C453   1.259       .  A
C447        O454   1.260       .  A
C447        O448   1.264       .  A
C447        C496   1.489       .  S
C449        O451   1.261       .  A
C449        O455   1.261       .  A
C449       C1012   1.490       .  S
C453        C481   1.473       .  S
In456       O458   2.220       .  S
In456       O459   2.247       .  S
In456       O467   2.246       .  S
In456       O463   2.265       .  S
In456       O464   2.233       .  S
In456       O465   2.241       .  S
In456      O1793   2.254       .  S
In456      O1800   2.252       .  S
C457        O463   1.261       .  A
C457        O465   1.258       .  A
C457        C472   1.478       .  S
O458        C466   1.259       .  A
O459        C466   1.262       .  A
C460        O461   1.262       .  A
C460       O1799   1.256       .  A
C460        C556   1.478       .  S
O461      In1788   2.264   1_554  S
C462        O464   1.259       .  A
C462       O1800   1.263       .  A
C462       C1021   1.485       .  S
C466        C544   1.473       .  S
O467       C1792   1.257       .  A
O468      In1788   2.249   1_554  S
O468       C1794   1.262   1_554  A
C469        C470   1.405       .  A
C469        C474   1.417       .  A
C470        C471   1.398       .  A
C470        H479   1.084       .  S
C471        C472   1.412       .  A
C471        S475   1.804       .  S
C472        C473   1.404       .  A
C473        C474   1.404       .  A
C473        H480   1.084       .  S
C474        S476   1.801       .  S
S475        H478   1.407       .  S
S476        H477   1.407       .  S
C481        C482   1.401       .  A
C481       C1818   1.412       .  A
C482        C483   1.397   1_565  A
C482        H491   1.084   1_565  S
C483       C1816   1.414       .  A
C483        S487   1.801       .  S
C484        C485   1.403   1_545  A
C484       C1815   1.413   1_554  A
C485        C486   1.397       .  A
C485        H492   1.084       .  S
C486       C1813   1.412   1_554  A
C486        S488   1.803       .  S
S487       H1822   1.405       .  S
S488       H1821   1.407       .  S
H489       S1820   1.408       .  S
H490       S1819   1.403   1_554  S
C493        C494   1.403       .  A
C493        C498   1.414   1_545  A
C494        C495   1.405   1_545  A
C494        H503   1.084       .  S
C495        C496   1.420       .  A
C495        S499   1.801       .  S
C496        C497   1.404       .  A
C497        C498   1.397       .  A
C497        H504   1.084       .  S
C498        S500   1.803       .  S
S499        H502   1.408       .  S
S500        H501   1.407       .  S
C505        C506   1.404       .  A
C505        C510   1.418       .  A
C506        C507   1.399       .  A
C506        H515   1.084       .  S
C507        C508   1.416       .  A
C507        S511   1.803       .  S
C508        C509   1.402       .  A
C509        C510   1.399       .  A
C509        H516   1.084       .  S
C510        S512   1.801       .  S
S511        H514   1.405       .  S
S512        H513   1.407       .  S
C517        C518   1.405       .  A
C517        C522   1.415       .  A
C518        C519   1.400       .  A
C518        H527   1.084       .  S
C519        C520   1.413       .  A
C519        S523   1.802       .  S
C520        C521   1.403       .  A
C521        C522   1.396       .  A
C521        H528   1.084       .  S
C522        S524   1.803       .  S
S523        H526   1.407       .  S
S524        H525   1.405       .  S
C529        C530   1.405       .  A
C529        C534   1.412       .  A
C530        C531   1.399       .  A
C530        H539   1.084       .  S
C531        C532   1.411       .  A
C531        S535   1.804       .  S
C532        C533   1.403       .  A
C533        C534   1.398       .  A
C533        H540   1.084       .  S
C534        S536   1.802       .  S
S535        H538   1.407       .  S
S536        H537   1.405       .  S
C541        C542   1.406       .  A
C541        C546   1.416       .  A
C542        C543   1.397       .  A
C542        H551   1.082       .  S
C543        C544   1.411       .  A
C543        S547   1.810       .  S
C544        C545   1.403       .  A
C545        C546   1.399       .  A
C545        H552   1.084       .  S
C546        S548   1.801       .  S
S547        H550   1.407       .  S
S548        H549   1.408       .  S
C553        C554   1.404       .  A
C553        C558   1.410       .  A
C554        C555   1.401       .  A
C554        H563   1.084       .  S
C555        C556   1.413       .  A
C555        S559   1.802       .  S
C556        C557   1.405       .  A
C557        C558   1.397       .  A
C557        H564   1.084       .  S
C558        S560   1.804       .  S
S559        H562   1.407       .  S
S560        H561   1.407       .  S
C565        C566   1.403       .  A
C565        C570   1.414       .  A
C566        C567   1.398   1_565  A
C566        H575   1.084       .  S
C567        C568   1.412       .  A
C567        S571   1.803       .  S
C568        C569   1.404       .  A
C569        C570   1.401   1_545  A
C569        H576   1.084       .  S
C570        S572   1.803       .  S
S571        H574   1.407       .  S
S572        H573   1.407       .  S
C577        C578   1.406       .  A
C577        C582   1.416       .  A
C578        C579   1.402       .  A
C578        H587   1.084       .  S
C579        C580   1.416       .  A
C579        S583   1.801       .  S
C580        C581   1.404       .  A
C581        C582   1.397       .  A
C581        H588   1.084       .  S
C582        S584   1.802       .  S
S583        H586   1.408       .  S
S584        H585   1.408       .  S
C589        C590   1.407       .  A
C589        C594   1.415       .  A
C590        C591   1.402       .  A
C590        H599   1.082       .  S
C591        C592   1.413       .  A
C591        S595   1.808       .  S
C592        C593   1.405       .  A
C593        C594   1.399       .  A
C593        H600   1.084       .  S
C594        S596   1.801       .  S
S595        H598   1.407       .  S
S596        H597   1.408       .  S
C601        C602   1.405       .  A
C601        C606   1.414       .  A
C602        C603   1.401   1_565  A
C602        H611   1.084       .  S
C603        C604   1.413       .  A
C603        S607   1.804       .  S
C604        C605   1.403       .  A
C605        C606   1.399   1_545  A
C605        H612   1.084       .  S
C606        S608   1.803       .  S
S607        H610   1.407       .  S
S608        H609   1.404       .  S
C613        C614   1.403       .  A
C613        C618   1.416       .  A
C614        C615   1.399       .  A
C614        H623   1.084       .  S
C615        C616   1.416       .  A
C615        S619   1.803       .  S
C616        C617   1.405       .  A
C617        C618   1.400       .  A
C617        H624   1.084       .  S
C618        S620   1.802       .  S
S619        H622   1.408       .  S
S620        H621   1.407       .  S
C625        C626   1.406       .  A
C625        C630   1.417       .  A
C626        C627   1.398       .  A
C626        H635   1.084       .  S
C627        C628   1.410       .  A
C627        S631   1.804       .  S
C628        C629   1.401       .  A
C629        C630   1.400       .  A
C629        H636   1.084       .  S
C630        S632   1.801       .  S
S631        H634   1.407       .  S
S632        H633   1.408       .  S
C637        C638   1.405       .  A
C637        C642   1.417       .  A
C638        C639   1.398       .  A
C638        H647   1.084       .  S
C639        C640   1.412       .  A
C639        S643   1.803       .  S
C640        C641   1.403       .  A
C641        C642   1.400       .  A
C641        H648   1.084       .  S
C642        S644   1.802       .  S
S643        H646   1.407       .  S
S644        H645   1.408       .  S
C649        C654   1.415   1_565  A
C649       C1982   1.405       .  A
C650        C651   1.397       .  A
C650       C1981   1.404   1_554  A
C650        H659   1.084       .  S
C651        C652   1.411   1_565  A
C651        S655   1.804       .  S
C652       C1985   1.402   1_554  A
C653        C654   1.400       .  A
C653       C1984   1.402       .  A
C653        H660   1.084       .  S
C654        S656   1.803       .  S
S655        H658   1.407       .  S
S656        H657   1.407       .  S
C661        C662   1.405       .  A
C661        C666   1.414       .  A
C662        C663   1.402   1_565  A
C662        H671   1.084       .  S
C663        C664   1.415       .  A
C663        S667   1.802       .  S
C664        C665   1.403   1_545  A
C665        C666   1.397       .  A
C665        H672   1.084       .  S
C666        S668   1.804       .  S
S667        H670   1.407       .  S
S668        H669   1.408       .  S
C673        C674   1.406       .  A
C673        C678   1.416       .  A
C674        C675   1.402       .  A
C674        H683   1.084       .  S
C675        C676   1.415       .  A
C675        S679   1.801       .  S
C676        C677   1.403       .  A
C677        C678   1.395       .  A
C677        H684   1.084       .  S
C678        S680   1.803       .  S
S679        H682   1.408       .  S
S680        H681   1.408       .  S
C685        C686   1.406       .  A
C685        C690   1.418       .  A
C686        C687   1.396       .  A
C686        H695   1.084       .  S
C687        C688   1.412       .  A
C687       S2023   1.804       .  S
C688        C689   1.403       .  A
C689        C690   1.402       .  A
C689        H696   1.084       .  S
C690        S692   1.800       .  S
S691       C2019   1.804       .  S
S691        H694   1.407   1_556  S
S692        H693   1.408       .  S
C697        C698   1.407       .  A
C697        C702   1.417       .  A
C698        C699   1.399       .  A
C698        H707   1.084       .  S
C699        C700   1.413       .  A
C699        S703   1.803   1_554  S
C700        C701   1.405       .  A
C701        C702   1.402       .  A
C701        H708   1.084       .  S
C702        S704   1.801       .  S
S703        H706   1.408   1_556  S
S704        H705   1.408       .  S
C709        C710   1.407       .  A
C709        C714   1.418       .  A
C710        C711   1.400       .  A
C710        H719   1.084       .  S
C711        C712   1.413       .  A
C711        S715   1.802       .  S
C712        C713   1.404       .  A
C713        C714   1.400       .  A
C713        H720   1.084       .  S
C714        S716   1.802       .  S
S715        H718   1.408       .  S
S716        H717   1.408       .  S
C721        C726   1.415       .  A
C721       C2054   1.403       .  A
C722        C723   1.400       .  A
C722       C2053   1.404       .  A
C722        H731   1.084       .  S
C723       C2056   1.414       .  A
C723        S727   1.801       .  S
C724        C725   1.404       .  A
C724       C2055   1.413       .  A
C725        C726   1.399       .  A
C725        H732   1.084       .  S
C726        S728   1.803       .  S
S727        H730   1.406       .  S
S728        H729   1.408       .  S
C733        C734   1.405       .  A
C733        C738   1.415       .  A
C734        C735   1.400       .  A
C734        H743   1.084       .  S
C735        C736   1.415       .  A
C735        S739   1.802       .  S
C736        C737   1.405       .  A
C737        C738   1.402       .  A
C737        H744   1.082       .  S
C738        S740   1.810       .  S
S739        H742   1.408       .  S
S740        H741   1.407       .  S
C745        C746   1.405       .  A
C745        C750   1.417   1_554  A
C746       C2079   1.396   1_554  A
C746        H755   1.084       .  S
C747        C748   1.413       .  A
C747       C2078   1.397       .  A
C747        S751   1.804       .  S
C748        C749   1.404       .  A
C749       C2082   1.404       .  A
C749        H756   1.084       .  S
C750       C2081   1.402       .  A
C750        S752   1.801       .  S
S751        H754   1.407       .  S
S752        H753   1.408   1_556  S
C757        C758   1.405       .  A
C757        C762   1.419       .  A
C758        C759   1.396       .  A
C758        H767   1.084       .  S
C759        C760   1.413       .  A
C759        S763   1.804       .  S
C760        C761   1.403       .  A
C761        C762   1.404       .  A
C761        H768   1.084       .  S
C762        S764   1.800       .  S
S763        H766   1.408       .  S
S764        H765   1.408       .  S
C769        C770   1.404       .  A
C769        C774   1.413       .  A
C770        C771   1.399       .  A
C770        H779   1.084       .  S
C771        C772   1.417       .  A
C771       S2107   1.801       .  S
C772        C773   1.407       .  A
C773        C774   1.400       .  A
C773        H780   1.084       .  S
C774        S776   1.802       .  S
S775       C2103   1.803       .  S
S775        H778   1.408       .  S
S776        H777   1.406       .  S
C781        C782   1.403       .  A
C781        C786   1.415       .  A
C782        C783   1.398       .  A
C782        H791   1.084       .  S
C783        C784   1.413       .  A
C783        S787   1.804       .  S
C784        C785   1.402       .  A
C785        C786   1.399       .  A
C785        H792   1.084       .  S
C786        S788   1.803       .  S
S787        H790   1.407       .  S
S788        H789   1.406       .  S
C793        C794   1.405       .  A
C793        C798   1.414       .  A
C794        C795   1.402       .  A
C794        H803   1.084       .  S
C795        C796   1.416       .  A
C795        S799   1.801       .  S
C796        C797   1.403       .  A
C797        C798   1.394       .  A
C797        H804   1.084       .  S
C798        S800   1.803       .  S
S799        H802   1.406       .  S
S800        H801   1.408       .  S
C805        C806   1.403       .  A
C805        C810   1.413       .  A
C806        C807   1.398       .  A
C806        H815   1.084       .  S
C807        C808   1.413       .  A
C807        S811   1.802       .  S
C808        C809   1.402       .  A
C809        C810   1.398       .  A
C809        H816   1.084       .  S
C810        S812   1.802       .  S
S811        H814   1.406       .  S
S812        H813   1.407       .  S
C817        C818   1.404       .  A
C817        C822   1.416       .  A
C818        C819   1.404       .  A
C818        H827   1.084       .  S
C819        C820   1.418       .  A
C819        S823   1.801       .  S
C820        C821   1.403       .  A
C821        C822   1.398       .  A
C821        H828   1.084       .  S
C822        S824   1.804       .  S
S823       H2158   1.408       .  S
S824        H825   1.408       .  S
H826       S2155   1.408   1_554  S
C829        C830   1.405       .  A
C829        C834   1.417       .  A
C830        C831   1.398       .  A
C830        H839   1.084       .  S
C831        C832   1.416       .  A
C831        S835   1.803       .  S
C832        C833   1.404       .  A
C833        C834   1.399       .  A
C833        H840   1.084       .  S
C834        S836   1.802       .  S
S835        H838   1.408       .  S
S836        H837   1.408       .  S
C841        C846   1.414       .  A
C841       C2174   1.404       .  A
C842        C843   1.400       .  A
C842       C2173   1.404       .  A
C842        H851   1.084   1_556  S
C843       C2176   1.415       .  A
C843        S847   1.803   1_556  S
C844        C845   1.405       .  A
C844       C2175   1.415       .  A
C845        C846   1.400       .  A
C845        H852   1.084       .  S
C846        S848   1.802       .  S
S847        H850   1.408       .  S
S848        H849   1.408       .  S
C853        C854   1.404       .  A
C853        C858   1.415       .  A
C854        C855   1.401       .  A
C854        H863   1.084       .  S
C855        C856   1.416       .  A
C855        S859   1.803       .  S
C856        C857   1.403       .  A
C857        C858   1.400       .  A
C857        H864   1.084       .  S
C858        S860   1.802       .  S
S859        H862   1.408       .  S
S860        H861   1.407       .  S
C865        C866   1.405       .  A
C865        C870   1.416       .  A
C866        C867   1.399       .  A
C866        H875   1.084       .  S
C867        C868   1.415       .  A
C867        S871   1.803       .  S
C868        C869   1.404       .  A
C869        C870   1.401       .  A
C869        H876   1.084       .  S
C870        S872   1.802       .  S
S871        H874   1.408       .  S
S872        H873   1.408       .  S
C877        C878   1.403   1_554  A
C877        C882   1.412       .  A
C878       C2211   1.403       .  A
C878       H2219   1.084       .  S
C879        C880   1.413       .  A
C879       C2210   1.401       .  A
C879        S883   1.803       .  S
C880       C2213   1.402       .  A
C881        C882   1.396   1_556  A
C881       C2212   1.402       .  A
C881        H888   1.084   1_556  S
C882        S884   1.804       .  S
S883        H886   1.407       .  S
S884        H885   1.407       .  S
H887       C2210   1.084       .  S
C889        C890   1.403       .  A
C889        C894   1.413       .  A
C890        C891   1.402       .  A
C890        H899   1.084       .  S
C891        C892   1.418       .  A
C891        S895   1.800       .  S
C892        C893   1.406       .  A
C893        C894   1.398       .  A
C893        H900   1.084       .  S
C894        S896   1.804       .  S
S895        H898   1.407       .  S
S896        H897   1.408       .  S
C901        C902   1.404       .  A
C901        C906   1.415       .  A
C902        C903   1.400       .  A
C902        H911   1.084       .  S
C903        C904   1.415       .  A
C903        S907   1.803       .  S
C904        C905   1.404       .  A
C905        C906   1.399       .  A
C905        H912   1.084       .  S
C906        S908   1.803       .  S
S907        H910   1.408       .  S
S908        H909   1.407       .  S
C913        C914   1.403       .  A
C913        C918   1.414       .  A
C914        C915   1.398       .  A
C914        H923   1.084       .  S
C915        C916   1.417       .  A
C915        S919   1.801       .  S
C916        C917   1.406       .  A
C917        C918   1.400       .  A
C917        H924   1.084       .  S
C918        S920   1.803       .  S
S919        H922   1.408       .  S
S920        H921   1.407       .  S
C925        C926   1.404       .  A
C925        C930   1.416       .  A
C926        C927   1.399       .  A
C926        H935   1.084       .  S
C927        C928   1.414       .  A
C927        S931   1.803       .  S
C928        C929   1.404       .  A
C929        C930   1.401       .  A
C929        H936   1.084       .  S
C930        S932   1.802       .  S
S931        H934   1.408       .  S
S932        H933   1.407       .  S
C937        C938   1.404       .  A
C937        C942   1.414       .  A
C938        C939   1.400       .  A
C938        H947   1.084       .  S
C939        C940   1.417       .  A
C939        S943   1.800       .  S
C940        C941   1.406       .  A
C941        C942   1.397       .  A
C941        H948   1.084       .  S
C942        S944   1.804       .  S
S943        H946   1.408       .  S
S944        H945   1.408       .  S
C949        C950   1.404       .  A
C949        C954   1.416       .  A
C950        C951   1.400       .  A
C950        H959   1.084       .  S
C951        C952   1.417       .  A
C951        S955   1.802       .  S
C952        C953   1.405       .  A
C953        C954   1.402       .  A
C953        H960   1.084       .  S
C954        S956   1.802       .  S
S955        H958   1.408       .  S
S956        H957   1.408       .  S
C961        C962   1.405       .  A
C961        C966   1.416       .  A
C962        C963   1.401       .  A
C962        H971   1.084       .  S
C963        C964   1.415       .  A
C963        S967   1.801       .  S
C964        C965   1.406       .  A
C965        C966   1.399       .  A
C965        H972   1.084       .  S
C966        S968   1.803       .  S
S967        H970   1.407       .  S
S968        H969   1.407       .  S
C973        C974   1.402       .  A
C973        C978   1.414       .  A
C974        C975   1.396       .  A
C974        H983   1.084       .  S
C975        C976   1.417       .  A
C975        S979   1.803       .  S
C976        C977   1.406       .  A
C977        C978   1.403       .  A
C977        H984   1.084       .  S
C978        S980   1.802       .  S
S979        H982   1.408       .  S
S980        H981   1.407       .  S
C985        C986   1.406       .  A
C985        C990   1.416       .  A
C986        C987   1.399       .  A
C986        H995   1.084       .  S
C987        C988   1.412       .  A
C987        S991   1.803       .  S
C988        C989   1.403       .  A
C989        C990   1.400       .  A
C989        H996   1.084       .  S
C990        S992   1.803       .  S
S991        H994   1.407       .  S
S992        H993   1.408       .  S
C997        C998   1.403       .  A
C997       C1002   1.412       .  A
C998        C999   1.400   1_655  A
C998       H1007   1.084       .  S
C999       C1000   1.418       .  A
C999       S1003   1.801       .  S
C1000      C1001   1.407       .  A
C1001      C1002   1.398   1_455  A
C1001      H1008   1.084       .  S
C1002      S1004   1.803       .  S
S1003      H1006   1.408       .  S
S1004      H1005   1.407       .  S
C1009      C1010   1.404       .  A
C1009      C1014   1.414       .  A
C1010      C1011   1.399       .  A
C1010      H1019   1.084       .  S
C1011      C1012   1.417       .  A
C1011      S1015   1.801       .  S
C1012      C1013   1.408       .  A
C1013      C1014   1.404       .  A
C1013      H1020   1.082       .  S
C1014      S1016   1.809       .  S
S1015      H1018   1.407       .  S
S1016      H1017   1.407       .  S
C1021      C1026   1.417       .  A
C1021      C2354   1.406       .  A
C1022      C1023   1.400       .  A
C1022      C2353   1.404   1_554  A
C1022      H1031   1.084       .  S
C1023      C2356   1.416   1_554  A
C1023      S1027   1.801       .  S
C1024      C1025   1.402       .  A
C1024      C2355   1.415       .  A
C1025      C1026   1.396       .  A
C1025      H1032   1.084       .  S
C1026      S1028   1.801       .  S
S1027      H1030   1.408       .  S
S1028      H1029   1.408       .  S
C1033      C1034   1.405       .  A
C1033      C1038   1.413       .  A
C1034      C1035   1.401       .  A
C1034      H1043   1.084       .  S
C1035      C1036   1.413       .  A
C1035      S1039   1.804       .  S
C1036      C1037   1.402       .  A
C1037      C1038   1.397       .  A
C1037      H1044   1.084       .  S
C1038      S1040   1.802       .  S
S1039      H1042   1.407       .  S
S1040      H1041   1.406       .  S
C1045      C1046   1.403       .  A
C1045      C1050   1.416       .  A
C1046      C1047   1.397       .  A
C1046      H1055   1.084       .  S
C1047      C1048   1.416       .  A
C1047      S1051   1.801       .  S
C1048      C1049   1.404       .  A
C1049      C1050   1.399       .  A
C1049      H1056   1.084       .  S
C1050      S1052   1.802       .  S
S1051      H1054   1.408       .  S
S1052      H1053   1.408       .  S
C1057      C1058   1.404       .  A
C1057      C1062   1.416       .  A
C1058      C1059   1.397       .  A
C1058      H1067   1.084       .  S
C1059      C1060   1.412       .  A
C1059      S1063   1.803       .  S
C1060      C1061   1.402       .  A
C1061      C1062   1.399       .  A
C1061      H1068   1.084       .  S
C1062      S1064   1.802       .  S
S1063      H1066   1.408       .  S
S1064      H1065   1.404       .  S
C1069      C1070   1.403       .  A
C1069      C1074   1.414       .  A
C1070      C1071   1.400       .  A
C1070      H1079   1.084       .  S
C1071      C1072   1.418       .  A
C1071      S1075   1.801       .  S
C1072      C1073   1.406       .  A
C1073      C1074   1.400       .  A
C1073      H1080   1.084       .  S
C1074      S1076   1.802       .  S
S1075      H1078   1.408       .  S
S1076      H1077   1.408       .  S
C1081      C1082   1.404       .  A
C1081      C1086   1.416       .  A
C1082      C2415   1.394   1_655  A
C1082      H1091   1.084       .  S
C1083      C1084   1.414       .  A
C1083      C2414   1.396   1_455  A
C1083      S1087   1.805       .  S
C1084      C1085   1.403       .  A
C1085      C2418   1.401   1_455  A
C1085      H1092   1.084       .  S
C1086      C2417   1.402   1_655  A
C1086      S1088   1.801       .  S
S1087      H1090   1.408       .  S
S1088      H1089   1.408       .  S
C1093      C1094   1.407       .  A
C1093      C1098   1.418       .  A
C1094      C1095   1.401   1_655  A
C1094      H1103   1.084       .  S
C1095      C1096   1.413       .  A
C1095      S1099   1.802       .  S
C1096      C1097   1.402       .  A
C1097      C1098   1.398   1_455  A
C1097      H1104   1.084       .  S
C1098      S1100   1.801       .  S
S1099      H1102   1.407       .  S
S1100      H1101   1.408       .  S
C1105      C1106   1.407       .  A
C1105      C1110   1.418   1_554  A
C1106      C1107   1.406       .  A
C1106      H1115   1.082       .  S
C1107      C1108   1.414       .  A
C1107      S1111   1.808       .  S
C1108      C1109   1.404   1_554  A
C1109      C1110   1.400       .  A
C1109      H2448   1.084       .  S
C1110      S2444   1.802       .  S
S1111      H1114   1.407       .  S
S1112      C2442   1.802       .  S
S1112      H1113   1.408       .  S
H1116      C2441   1.084       .  S
C1117      C1118   1.405       .  A
C1117      C1122   1.417       .  A
C1118      C1119   1.396       .  A
C1118      H1127   1.084       .  S
C1119      C1120   1.413       .  A
C1119      S1123   1.804       .  S
C1120      C1121   1.403       .  A
C1121      C1122   1.401       .  A
C1121      H1128   1.084       .  S
C1122      S1124   1.801       .  S
S1123      H1126   1.406       .  S
S1124      H1125   1.408       .  S
C1129      C1130   1.407       .  A
C1129      C1134   1.415       .  A
C1130      C1131   1.403       .  A
C1130      H1139   1.084       .  S
C1131      C1132   1.416       .  A
C1131      S1135   1.801       .  S
C1132      C1133   1.405       .  A
C1133      C1134   1.398       .  A
C1133      H1140   1.084       .  S
C1134      S1136   1.802       .  S
S1135      H1138   1.407       .  S
S1136      H1137   1.408       .  S
C1141      C1142   1.401       .  A
C1141      C1146   1.414       .  A
C1142      C1143   1.398       .  A
C1142      H1151   1.084       .  S
C1143      C1144   1.417       .  A
C1143      S1147   1.800       .  S
C1144      C1145   1.405       .  A
C1145      C1146   1.398       .  A
C1145      H1152   1.084       .  S
C1146      S1148   1.804       .  S
S1147      H1150   1.407       .  S
S1148      H1149   1.408       .  S
C1153      C1158   1.416       .  A
C1153      C2486   1.404   1_554  A
C1154      C1155   1.401       .  A
C1154      C2485   1.404       .  A
C1154      H1163   1.084       .  S
C1155      C2488   1.417       .  A
C1155      S1159   1.802       .  S
C1156      C1157   1.404       .  A
C1156      C2487   1.417   1_554  A
C1157      C1158   1.398       .  A
C1157      H1164   1.084       .  S
C1158      S1160   1.803       .  S
S1159      H1162   1.408       .  S
S1160      H1161   1.408       .  S
C1165      C1166   1.406       .  A
C1165      C1170   1.417       .  A
C1166      C1167   1.401       .  A
C1166      H1175   1.084       .  S
C1167      C1168   1.415       .  A
C1167      S1171   1.802       .  S
C1168      C1169   1.403       .  A
C1169      C1170   1.398       .  A
C1169      H1176   1.084       .  S
C1170      S1172   1.801       .  S
S1171      H1174   1.408       .  S
S1172      H1173   1.408       .  S
C1177      C1178   1.408       .  A
C1177      C1182   1.419       .  A
C1178      C1179   1.402       .  A
C1178      H1187   1.084       .  S
C1179      C1180   1.414       .  A
C1179      S1183   1.804       .  S
C1180      C1181   1.401       .  A
C1181      C1182   1.398       .  A
C1181      H1188   1.084       .  S
C1182      S1184   1.801       .  S
S1183      H1186   1.407       .  S
S1184      H1185   1.408       .  S
C1189      C1194   1.418       .  A
C1189      C2522   1.407       .  A
C1190      C1191   1.397       .  A
C1190      C2521   1.403   1_554  A
C1190      H1199   1.085       .  S
C1191      C2524   1.415   1_554  A
C1191      S1195   1.802       .  S
C1192      C1193   1.402       .  A
C1192      C2523   1.414       .  A
C1193      C1194   1.397       .  A
C1193      H1200   1.084       .  S
C1194      S1196   1.801       .  S
S1195      H1198   1.408       .  S
S1196      H1197   1.408       .  S
C1201      C1202   1.404       .  A
C1201      C1206   1.416       .  A
C1202      C1203   1.401       .  A
C1202      H1211   1.084       .  S
C1203      C1204   1.415       .  A
C1203      S1207   1.802       .  S
C1204      C1205   1.404       .  A
C1205      C1206   1.400       .  A
C1205      H1212   1.084       .  S
C1206      S1208   1.802       .  S
S1207      H1210   1.407       .  S
S1208      H1209   1.408       .  S
C1213      C1214   1.403       .  A
C1213      C1218   1.414       .  A
C1214      C2547   1.398   1_455  A
C1214      H1223   1.084       .  S
C1215      C1216   1.414       .  A
C1215      C2546   1.398   1_654  A
C1215      S1219   1.802       .  S
C1216      C1217   1.404       .  A
C1217      C2550   1.398   1_655  A
C1217      H1224   1.084       .  S
C1218      C2549   1.398       .  A
C1218      S1220   1.804       .  S
S1219      H1222   1.408       .  S
S1220      H1221   1.408       .  S
C1225      C1226   1.405       .  A
C1225      C1230   1.414       .  A
C1226      C1227   1.401       .  A
C1226      H1235   1.084       .  S
C1227      C1228   1.416   1_655  A
C1227      S1231   1.803   1_655  S
C1228      C1229   1.405       .  A
C1229      C1230   1.403   1_455  A
C1229      H1236   1.084       .  S
C1230      S1232   1.802       .  S
S1231      H1234   1.408       .  S
S1232      H1233   1.408       .  S
C1237      C1238   1.405       .  A
C1237      C1242   1.413       .  A
C1238      C1239   1.399       .  A
C1238      H1247   1.084       .  S
C1239      C1240   1.414       .  A
C1239      S2575   1.803       .  S
C1240      C1241   1.404       .  A
C1241      C1242   1.397       .  A
C1241      H1248   1.084       .  S
C1242      S1244   1.802       .  S
S1243      C2571   1.802   1_554  S
S1243      H1246   1.407       .  S
S1244      H1245   1.408       .  S
C1249      C1250   1.404       .  A
C1249      C1254   1.416       .  A
C1250      C1251   1.401       .  A
C1250      H1259   1.084       .  S
C1251      C1252   1.416       .  A
C1251      S1255   1.799       .  S
C1252      C1253   1.406       .  A
C1253      C1254   1.401       .  A
C1253      H1260   1.084       .  S
C1254      S1256   1.802       .  S
S1255      H1258   1.408       .  S
S1256      H1257   1.408       .  S
C1261      C1262   1.404       .  A
C1261      C1266   1.414       .  A
C1262      C1263   1.400       .  A
C1262      H1271   1.084       .  S
C1263      C1264   1.414       .  A
C1263      S1267   1.803       .  S
C1264      C1265   1.403       .  A
C1265      C1266   1.399       .  A
C1265      H1272   1.084       .  S
C1266      S1268   1.804       .  S
S1267      H1270   1.407       .  S
S1268      H1269   1.407       .  S
C1273      C1274   1.407       .  A
C1273      C1278   1.418       .  A
C1274      C1275   1.397       .  A
C1274      H1283   1.084       .  S
C1275      C1276   1.413       .  A
C1275      S1279   1.803       .  S
C1276      C1277   1.404       .  A
C1277      C1278   1.402       .  A
C1277      H1284   1.084       .  S
C1278      S1280   1.800       .  S
S1279      H2614   1.408       .  S
S1280      H1281   1.408       .  S
H1282      S2611   1.408       .  S
C1285      C1286   1.402       .  A
C1285      C1290   1.412       .  A
C1286      C1287   1.398       .  A
C1286      H1295   1.084       .  S
C1287      C1288   1.418       .  A
C1287      S1291   1.801       .  S
C1288      C1289   1.406       .  A
C1289      C1290   1.400       .  A
C1289      H1296   1.084       .  S
C1290      S1292   1.802       .  S
S1291      H1294   1.408       .  S
S1292      H1293   1.408       .  S
C1297      C1298   1.405       .  A
C1297      C1302   1.417       .  A
C1298      C1299   1.395       .  A
C1298      H1307   1.084       .  S
C1299      C1300   1.412       .  A
C1299      S1303   1.803       .  S
C1300      C1301   1.404       .  A
C1301      C1302   1.401       .  A
C1301      H1308   1.084       .  S
C1302      S1304   1.800       .  S
S1303      H1306   1.408       .  S
S1304      H1305   1.408       .  S
C1309      C1310   1.403       .  A
C1309      C1314   1.414       .  A
C1310      C1311   1.397       .  A
C1310      H1319   1.084       .  S
C1311      C1312   1.414       .  A
C1311      S1315   1.804       .  S
C1312      C1313   1.403       .  A
C1313      C1314   1.400       .  A
C1313      H1320   1.084       .  S
C1314      S1316   1.803       .  S
S1315      H2650   1.407   1_554  S
S1316      H1317   1.408       .  S
H1318      S2647   1.408       .  S
C1321      C1322   1.406       .  A
C1321      C1326   1.413       .  A
C1322      C1323   1.403   1_655  A
C1322      H1331   1.084       .  S
C1323      C1324   1.415       .  A
C1323      S1327   1.801       .  S
C1324      C1325   1.405       .  A
C1325      C1326   1.396   1_455  A
C1325      H1332   1.084       .  S
C1326      S1328   1.803       .  S
S1327      H1330   1.408       .  S
S1328      H1329   1.408       .  S
In1333     O1335   2.233       .  S
In1333     O1336   2.256       .  S
In1333     O1344   2.237       .  S
In1333     O1338   2.246       .  S
In1333     O1340   2.244       .  S
In1333     O1341   2.237       .  S
In1333     O1342   2.226       .  S
In1333     O1345   2.242       .  S
C1334      O1340   1.263       .  A
C1334      O1342   1.262       .  A
C1334      C2656   1.479       .  S
O1335      C1343   1.258       .  A
O1336      C1343   1.259       .  A
C1337      O1344   1.259       .  A
C1337      O1338   1.258       .  A
C1337      C2641   1.480       .  S
C1339      O1341   1.262       .  A
C1339      O1345   1.260       .  A
C1339      C2617   1.484       .  S
C1343      C2629   1.485       .  S
In1346     O1348   2.238       .  S
In1346     O1349   2.248       .  S
In1346     O1357   2.258       .  S
In1346     O1351   2.239       .  S
In1346     O1353   2.240       .  S
In1346     O1354   2.252       .  S
In1346     O1355   2.250       .  S
In1346     O1358   2.247       .  S
C1347      O1353   1.259       .  A
C1347      O1355   1.260       .  A
C1347      C2653   1.479       .  S
O1348      C1356   1.260       .  A
O1349      C1356   1.260       .  A
C1350      O1357   1.260       .  A
C1350      O1351   1.260       .  A
C1350      C2605   1.490       .  S
C1352      O1354   1.260       .  A
C1352      O1358   1.258       .  A
C1352      C2581   1.484       .  S
C1356      C2593   1.472       .  S
In1359     O1361   2.238       .  S
In1359     O1362   2.241       .  S
In1359     O1370   2.260       .  S
In1359     O1364   2.222       .  S
In1359     O1366   2.246       .  S
In1359     O1367   2.249       .  S
In1359     O1368   2.231       .  S
In1359     O1371   2.235       .  S
C1360      O1366   1.261       .  A
C1360      O1368   1.260       .  A
C1360      C2569   1.476       .  S
O1361      C1369   1.259       .  A
O1362      C1369   1.263       .  A
C1363      O1370   1.262       .  A
C1363      O1364   1.258       .  A
C1363      C2560   1.479       .  S
C1365      O1367   1.261       .  A
C1365      O1371   1.259       .  A
C1365      C2536   1.479       .  S
C1369      C2545   1.480       .  S
In1372     O1374   2.236       .  S
In1372     O1375   2.243       .  S
In1372     O1383   2.241   1_556  S
In1372     O1379   2.243       .  S
In1372     O1380   2.235       .  S
In1372     O1381   2.237       .  S
C1373      O1379   1.261       .  A
C1373      O1381   1.260       .  A
C1373      C2572   1.479       .  S
O1374      C1382   1.259       .  A
O1375      C1382   1.261       .  A
C1376      O1377   1.258       .  A
C1376      C2644   1.477       .  S
C1378      O1380   1.257       .  A
C1378      C2521   1.482       .  S
C1382      C2632   1.480       .  S
In1385     O1387   2.239       .  S
In1385     O1388   2.237       .  S
In1385     O1396   2.259       .  S
In1385     O1390   2.236       .  S
In1385     O1392   2.255       .  S
In1385     O1393   2.250       .  S
In1385     O1394   2.244       .  S
In1385     O1397   2.250       .  S
C1386      O1392   1.261       .  A
C1386      O1394   1.259       .  A
C1386      C2512   1.484       .  S
O1387      C1395   1.261       .  A
O1388      C1395   1.261       .  A
C1389      O1396   1.259       .  A
C1389      O1390   1.260       .  A
C1389      C2557   1.488       .  S
C1391      O1393   1.258       .  A
C1391      O1397   1.260       .  A
C1391      C2497   1.483       .  S
C1395      C2548   1.476       .  S
In1398     O1400   2.242       .  S
In1398     O1401   2.243       .  S
In1398     O1409   2.244       .  S
In1398     O1405   2.254       .  S
In1398     O1406   2.235       .  S
In1398     O1407   2.244       .  S
In1398     O1410   2.249       .  S
C1399      O1405   1.261       .  A
C1399      O1407   1.258       .  A
C1399      C2509   1.483       .  S
O1400      C1408   1.259       .  A
O1401      C1408   1.260       .  A
C1402      O1403   1.259       .  A
C1402      C2608   1.483       .  S
C1404      O1406   1.259       .  A
C1404      O1410   1.261       .  A
C1404      C2485   1.481       .  S
C1408      C2596   1.472       .  S
In1411     O1413   2.239       .  S
In1411     O1414   2.262       .  S
In1411     O1422   2.254       .  S
In1411     O1418   2.250       .  S
In1411     O1419   2.246       .  S
In1411     O1420   2.233       .  S
In1411     O1423   2.231       .  S
C1412      O1418   1.264       .  A
C1412      O1420   1.259       .  A
C1412      C2476   1.486       .  S
O1413      C1421   1.258       .  A
O1414      C1421   1.262       .  A
C1415      O1416   1.259       .  A
C1415      C2461   1.480       .  S
C1417      O1419   1.263       .  A
C1417      O1423   1.260       .  A
C1417      C2452   1.479       .  S
C1421      C2437   1.488       .  S
In1424     O1426   2.242       .  S
In1424     O1427   2.255       .  S
In1424     O1435   2.263       .  S
In1424     O1429   2.230       .  S
In1424     O1431   2.248       .  S
In1424     O1432   2.250       .  S
In1424     O1433   2.242       .  S
In1424     O1436   2.232       .  S
C1425      O1431   1.260       .  A
C1425      O1433   1.259       .  A
C1425      C2473   1.474       .  S
O1426      C1434   1.260       .  A
O1427      C1434   1.261       .  A
C1428      O1435   1.262       .  A
C1428      O1429   1.257       .  A
C1428      C2425   1.488       .  S
C1430      O1432   1.263       .  A
C1430      O1436   1.260       .  A
C1430      C2413   1.483       .  S
C1434      C2401   1.487       .  S
In1437     O1439   2.250   1_556  S
In1437     O1440   2.246       .  S
In1437     O1448   2.251       .  S
In1437     O1444   2.257       .  S
In1437     O1445   2.242       .  S
In1437     O1446   2.240       .  S
In1437     O1449   2.240       .  S
C1438      O1444   1.262       .  A
C1438      O1446   1.259       .  A
C1438      C2389   1.480       .  S
O1439      C1447   1.260   1_554  A
O1440      C1447   1.260       .  A
C1441      O1442   1.258       .  A
C1441      C2365   1.469       .  S
C1443      O1445   1.262       .  A
C1443      O1449   1.260       .  A
C1443      C2380   1.478       .  S
C1447      C2356   1.487       .  S
In1450     O1452   2.238       .  S
In1450     O1453   2.246       .  S
In1450     O1461   2.267       .  S
In1450     O1455   2.234       .  S
In1450     O1457   2.242       .  S
In1450     O1458   2.264       .  S
In1450     O1459   2.249       .  S
In1450     O1462   2.221       .  S
C1451      O1457   1.261       .  A
C1451      O1459   1.261       .  A
C1451      C2392   1.475       .  S
O1452      C1460   1.261       .  A
O1453      C1460   1.261       .  A
C1454      O1461   1.261       .  A
C1454      O1455   1.258       .  A
C1454      C2428   1.483       .  S
C1456      O1458   1.261       .  A
C1456      O1462   1.256       .  A
C1456      C2416   1.477   1_556  S
C1460      C2341   1.483       .  S
In1463     O1465   2.249       .  S
In1463     O1466   2.245       .  S
In1463     O1474   2.252       .  S
In1463     O1468   2.236       .  S
In1463     O1470   2.246       .  S
In1463     O1471   2.238       .  S
In1463     O1472   2.231       .  S
In1463     O1475   2.232       .  S
C1464      O1470   1.261       .  A
C1464      O1472   1.259       .  A
C1464      C2329   1.474       .  S
O1465      C1473   1.260       .  A
O1466      C1473   1.258       .  A
C1467      O1474   1.260       .  A
C1467      O1468   1.259       .  A
C1467      C2464   1.482       .  S
C1469      O1471   1.262       .  A
C1469      O1475   1.261       .  A
C1469      C2449   1.479       .  S
C1473      C2584   1.486       .  S
In1476     O1478   2.241       .  S
In1476     O1479   2.237       .  S
In1476     O1487   2.238       .  S
In1476     O1481   2.243       .  S
In1476     O1483   2.237       .  S
In1476     O1484   2.227       .  S
In1476     O1485   2.243       .  S
In1476     O1488   2.235       .  S
C1477      O1483   1.259       .  A
C1477      O1485   1.260       .  A
C1477      C2332   1.485       .  S
O1478      C1486   1.259       .  A
O1479      C1486   1.258       .  A
C1480      O1487   1.257       .  A
C1480      O1481   1.259       .  A
C1480      C2368   1.473       .  S
C1482      O1484   1.261       .  A
C1482      O1488   1.263       .  A
C1482      C2377   1.481       .  S
C1486      C2620   1.477       .  S
In1489     O1491   2.234       .  S
In1489     O1492   2.248       .  S
In1489     O1500   2.253       .  S
In1489     O1494   2.237       .  S
In1489     O1496   2.242       .  S
In1489     O1497   2.236       .  S
In1489     O1498   2.247       .  S
In1489     O1501   2.251       .  S
C1490      O1496   1.261       .  A
C1490      O1498   1.260       .  A
C1490      C2320   1.477       .  S
O1491      C1499   1.260       .  A
O1492      C1499   1.262       .  A
C1493      O1500   1.260       .  A
C1493      O1494   1.259       .  A
C1493      C2305   1.479       .  S
C1495      O1497   1.260       .  A
C1495      O1501   1.259       .  A
C1495      C2281   1.480       .  S
C1499      C2293   1.478       .  S
In1502     O1504   2.233       .  S
In1502     O1505   2.250       .  S
In1502     O1513   2.256       .  S
In1502     O1507   2.235       .  S
In1502     O1509   2.254       .  S
In1502     O1510   2.250       .  S
In1502     O1511   2.244       .  S
In1502     O1514   2.245       .  S
C1503      O1509   1.260       .  A
C1503      O1511   1.260       .  A
C1503      C2317   1.487       .  S
O1504      C1512   1.259       .  A
O1505      C1512   1.262       .  A
C1506      O1513   1.261       .  A
C1506      O1507   1.258       .  A
C1506      C2269   1.484       .  S
C1508      O1510   1.262       .  A
C1508      O1514   1.260       .  A
C1508      C2245   1.484       .  S
C1512      C2257   1.477       .  S
In1515     O1517   2.234       .  S
In1515     O1518   2.252       .  S
In1515     O1526   2.261       .  S
In1515     O1522   2.245       .  S
In1515     O1523   2.255       .  S
In1515     O1524   2.243       .  S
In1515     O1527   2.246       .  S
C1516      O1522   1.260       .  A
C1516      O1524   1.261       .  A
C1516      C2233   1.479       .  S
O1517      C1525   1.260       .  A
O1518      C1525   1.262       .  A
C1519      O1520   1.258       .  A
C1519      C2308   1.485       .  S
C1521      O1523   1.259       .  A
C1521      O1527   1.259       .  A
C1521      C2440   1.490       .  S
C1525      C2296   1.478       .  S
In1528     O1530   2.237       .  S
In1528     O1531   2.257       .  S
In1528     O1539   2.253       .  S
In1528     O1533   2.232       .  S
In1528     O1535   2.245       .  S
In1528     O1536   2.258       .  S
In1528     O1537   2.249       .  S
In1528     O1540   2.241       .  S
C1529      O1535   1.259       .  A
C1529      O1537   1.259       .  A
C1529      C2236   1.480       .  S
O1530      C1538   1.259       .  A
O1531      C1538   1.262       .  A
C1532      O1539   1.263       .  A
C1532      O1533   1.259       .  A
C1532      C2221   1.480       .  S
C1534      O1536   1.261       .  A
C1534      O1540   1.258       .  A
C1534      C2404   1.487       .  S
C1538      C2209   1.479       .  S
In1541     O1543   2.252       .  S
In1541     O1544   2.249       .  S
In1541     O1552   2.252       .  S
In1541     O1546   2.232       .  S
In1541     O1548   2.245       .  S
In1541     O1549   2.267       .  S
In1541     O1550   2.255       .  S
In1541     O1553   2.247       .  S
C1542      O1548   1.259       .  A
C1542      O1550   1.261       .  A
C1542      C2197   1.484       .  S
O1543      C1551   1.259       .  A
O1544      C1551   1.262       .  A
C1545      O1552   1.262       .  A
C1545      O1546   1.260       .  A
C1545      C2224   1.482       .  S
C1547      O1549   1.260       .  A
C1547      O1553   1.258       .  A
C1547      C2185   1.487       .  S
C1551      C2212   1.482       .  S
In1554     O1556   2.240       .  S
In1554     O1557   2.247       .  S
In1554     O1565   2.252       .  S
In1554     O1561   2.243       .  S
In1554     O1562   2.263       .  S
In1554     O1563   2.252       .  S
C1555      O1561   1.260       .  A
C1555      O1563   1.261       .  A
C1555      C2200   1.484       .  S
O1556      C1564   1.259       .  A
O1557      C1564   1.261       .  A
C1558      O1559   1.261       .  A
C1558      C2272   1.484       .  S
C1560      O1562   1.259       .  A
C1560      C2173   1.483       .  S
C1564      C2260   1.475       .  S
In1567     O1569   2.248       .  S
In1567     O1570   2.237       .  S
In1567     O1578   2.272       .  S
In1567     O1572   2.229       .  S
In1567     O1574   2.237       .  S
In1567     O1575   2.251       .  S
In1567     O1576   2.245       .  S
In1567     O1579   2.232       .  S
C1568      O1574   1.261       .  A
C1568      O1576   1.260       .  A
C1568      C2161   1.482       .  S
O1569      C1577   1.260       .  A
O1570      C1577   1.259       .  A
C1571      O1578   1.262       .  A
C1571      O1572   1.256       .  A
C1571      C2149   1.483       .  S
C1573      O1575   1.259       .  A
C1573      O1579   1.258       .  A
C1573      C2137   1.470       .  S
C1577      C2284   1.478       .  S
In1580     O1582   2.258       .  S
In1580     O1583   2.246       .  S
In1580     O1591   2.247       .  S
In1580     O1585   2.233       .  S
In1580     O1587   2.248       .  S
In1580     O1588   2.245       .  S
In1580     O1589   2.247       .  S
In1580     O1592   2.239       .  S
C1581      O1587   1.261       .  A
C1581      O1589   1.259       .  A
C1581      C2164   1.485       .  S
O1582      C1590   1.259       .  A
O1583      C1590   1.257       .  A
C1584      O1591   1.262       .  A
C1584      O1585   1.260       .  A
C1584      C2125   1.479       .  S
C1586      O1588   1.260       .  A
C1586      O1592   1.258       .  A
C1586      C2116   1.473       .  S
C1590      C2248   1.483       .  S
In1593     O1595   2.247       .  S
In1593     O1596   2.225       .  S
In1593     O1604   2.261       .  S
In1593     O1598   2.245       .  S
In1593     O1600   2.259       .  S
In1593     O1601   2.259       .  S
In1593     O1602   2.242       .  S
In1593     O1605   2.229       .  S
C1594      O1600   1.263       .  A
C1594      O1602   1.260       .  A
C1594      C2101   1.491       .  S
O1595      C1603   1.262       .  A
O1596      C1603   1.260       .  A
C1597      O1604   1.258       .  A
C1597      O1598   1.260       .  A
C1597      C2089   1.491       .  S
C1599      O1601   1.259       .  A
C1599      O1605   1.258       .  A
C1599      C2080   1.474       .  S
C1603      C2533   1.475       .  S
In1606     O1608   2.234       .  S
In1606     O1609   2.249       .  S
In1606     O1617   2.256   1_556  S
In1606     O1613   2.255       .  S
In1606     O1614   2.248       .  S
In1606     O1615   2.247       .  S
In1606     O1618   2.232       .  S
C1607      O1613   1.261       .  A
C1607      O1615   1.260       .  A
C1607      C2104   1.483       .  S
O1608      C1616   1.259       .  A
O1609      C1616   1.262       .  A
C1610      O1611   1.261       .  A
C1610      C2128   1.481       .  S
C1612      O1614   1.262       .  A
C1612      O1618   1.259       .  A
C1612      C2113   1.475       .  S
C1616      C2524   1.482       .  S
In1619     O1621   2.248       .  S
In1619     O1622   2.259       .  S
In1619     O1630   2.258       .  S
In1619     O1626   2.273       .  S
In1619     O1627   2.241       .  S
In1619     O1628   2.240       .  S
In1619     O1631   2.242       .  S
C1620      O1626   1.260       .  A
C1620      O1628   1.255       .  A
C1620      C2065   1.484       .  S
O1621      C1629   1.260       .  A
O1622      C1629   1.260       .  A
C1623      O1624   1.261       .  A
C1623      C2152   1.483       .  S
C1625      O1627   1.262       .  A
C1625      O1631   1.261       .  A
C1625      C2140   1.475       .  S
C1629      C2053   1.484       .  S
In1632     O1634   2.262       .  S
In1632     O1635   2.243       .  S
In1632     O1643   2.265       .  S
In1632     O1637   2.230       .  S
In1632     O1639   2.240       .  S
In1632     O1640   2.264       .  S
In1632     O1641   2.252       .  S
In1632     O1644   2.232       .  S
C1633      O1639   1.261       .  A
C1633      O1641   1.259       .  A
C1633      C2068   1.488       .  S
O1634      C1642   1.259       .  A
O1635      C1642   1.259       .  A
C1636      O1643   1.263       .  A
C1636      O1637   1.259       .  A
C1636      C2092   1.485       .  S
C1638      O1640   1.263       .  A
C1638      O1644   1.260       .  A
C1638      C2077   1.489       .  S
C1642      C2041   1.487       .  S
In1645     O1647   2.246       .  S
In1645     O1648   2.244       .  S
In1645     O1656   2.254       .  S
In1645     O1652   2.252       .  S
In1645     O1653   2.259       .  S
In1645     O1654   2.244       .  S
In1645     O1657   2.236       .  S
C1646      O1652   1.261       .  A
C1646      O1654   1.261       .  A
C1646      C2032   1.480       .  S
O1647      C1655   1.259       .  A
O1648      C1655   1.262       .  A
C1649      O1650   1.259       .  A
C1649      C2020   1.481       .  S
C1651      O1653   1.262       .  A
C1651      O1657   1.260       .  A
C1651      C2005   1.478       .  S
C1655      C2488   1.487       .  S
In1658     O1660   2.244       .  S
In1658     O1661   2.252       .  S
In1658     O1669   2.257       .  S
In1658     O1663   2.243       .  S
In1658     O1665   2.241       .  S
In1658     O1666   2.249       .  S
In1658     O1667   2.256       .  S
In1658     O1670   2.239       .  S
C1659      O1665   1.258       .  A
C1659      O1667   1.259       .  A
C1659      C2029   1.486       .  S
O1660      C1668   1.259       .  A
O1661      C1668   1.262       .  A
C1662      O1669   1.261       .  A
C1662      O1663   1.259       .  A
C1662      C1996   1.483       .  S
C1664      O1666   1.262       .  A
C1664      O1670   1.260       .  A
C1664      C1984   1.476       .  S
C1668      C2500   1.485       .  S
In1671     O1673   2.239       .  S
In1671     O1674   2.272       .  S
In1671     O1682   2.259       .  S
In1671     O1676   2.235       .  S
In1671     O1678   2.238       .  S
In1671     O1679   2.242       .  S
In1671     O1680   2.257       .  S
In1671     O1683   2.240       .  S
C1672      O1678   1.258       .  A
C1672      O1680   1.260       .  A
C1672      C1972   1.480       .  S
O1673      C1681   1.256       .  A
O1674      C1681   1.261       .  A
C1675      O1682   1.262       .  A
C1675      O1676   1.258       .  A
C1675      C1993   1.483       .  S
C1677      O1679   1.262       .  A
C1677      O1683   1.260       .  A
C1677      C1981   1.477       .  S
C1681      C2188   1.487       .  S
In1684     O1686   2.245       .  S
In1684     O1687   2.260       .  S
In1684     O1691   2.255       .  S
In1684     O1692   2.242       .  S
In1684     O1693   2.252       .  S
In1684     O1696   2.247       .  S
C1685      O1691   1.259       .  A
C1685      O1693   1.258       .  A
C1685      C1969   1.480       .  S
O1686      C1694   1.258       .  A
O1687      C1694   1.260       .  A
C1688      O1695   1.261       .  A
C1688      O1689   1.257       .  A
C1688      C1948   1.478       .  S
C1690      O1692   1.260       .  A
C1690      O1696   1.260       .  A
C1690      C1957   1.483       .  S
C1694      C2176   1.484       .  S
In1697     O1699   2.240       .  S
In1697     O1700   2.239       .  S
In1697     O1708   2.240       .  S
In1697     O1702   2.246       .  S
In1697     O1704   2.248       .  S
In1697     O1705   2.259       .  S
In1697     O1706   2.260       .  S
In1697     O1709   2.227       .  S
C1698      O1704   1.259       .  A
C1698      O1706   1.261       .  A
C1698      C1933   1.488       .  S
O1699      C1707   1.259       .  A
O1700      C1707   1.260       .  A
C1701      O1708   1.257       .  A
C1701      O1702   1.261       .  A
C1701      C1945   1.477       .  S
C1703      O1705   1.262       .  A
C1703      O1709   1.259       .  A
C1703      C1960   1.484       .  S
C1707      C1921   1.480       .  S
In1710     O1712   2.254       .  S
In1710     O1713   2.251       .  S
In1710     O1721   2.258       .  S
In1710     O1715   2.251       .  S
In1710     O1717   2.256       .  S
In1710     O1718   2.252       .  S
In1710     O1719   2.261       .  S
In1710     O1722   2.232       .  S
C1711      O1717   1.261       .  A
C1711      O1719   1.258       .  A
C1711      C1936   1.490       .  S
O1712      C1720   1.260       .  A
O1713      C1720   1.259       .  A
C1714      O1721   1.261       .  A
C1714      O1715   1.262       .  A
C1714      C2017   1.489       .  S
C1716      O1718   1.261       .  A
C1716      O1722   1.261       .  A
C1716      C2008   1.487       .  S
C1720      C1909   1.487       .  S
In1723     O1725   2.225       .  S
In1723     O1726   2.245       .  S
In1723     O1734   2.248       .  S
In1723     O1728   2.241       .  S
In1723     O1730   2.248       .  S
In1723     O1731   2.237       .  S
In1723     O1732   2.246       .  S
In1723     O1735   2.239       .  S
C1724      O1730   1.261       .  A
C1724      O1732   1.259       .  A
C1724      C1897   1.476       .  S
O1725      C1733   1.259       .  A
O1726      C1733   1.261       .  A
C1727      O1734   1.260       .  A
C1727      O1728   1.260       .  A
C1727      C1885   1.474       .  S
C1729      O1731   1.259       .  A
C1729      O1735   1.261       .  A
C1729      C1924   1.484       .  S
C1733      C1873   1.480       .  S
In1736     O1738   2.231       .  S
In1736     O1739   2.239       .  S
In1736     O1747   2.252       .  S
In1736     O1741   2.258       .  S
In1736     O1743   2.248       .  S
In1736     O1744   2.257       .  S
In1736     O1745   2.248       .  S
In1736     O1748   2.240       .  S
C1737      O1743   1.260       .  A
C1737      O1745   1.259       .  A
C1737      C1900   1.477       .  S
O1738      C1746   1.261       .  A
O1739      C1746   1.262       .  A
C1740      O1747   1.257       .  A
C1740      O1741   1.259       .  A
C1740      C1864   1.482       .  S
C1742      O1744   1.261       .  A
C1742      O1748   1.259       .  A
C1742      C1912   1.489       .  S
C1746      C1852   1.476       .  S
In1749     O1751   2.228       .  S
In1749     O1752   2.241       .  S
In1749     O1760   2.240       .  S
In1749     O1756   2.250       .  S
In1749     O1757   2.253       .  S
In1749     O1758   2.231       .  S
In1749     O1761   2.241       .  S
C1750      O1756   1.263       .  A
C1750      O1758   1.258       .  A
C1750      C1840   1.479       .  S
O1751      C1759   1.260       .  A
O1752      C1759   1.264       .  A
C1753      O1754   1.260       .  A
C1753      C1861   1.479       .  S
C1755      O1757   1.262       .  A
C1755      O1761   1.260       .  A
C1755      C2056   1.483       .  S
C1759      C1849   1.479       .  S
In1762     O1764   2.242       .  S
In1762     O1765   2.248       .  S
In1762     O1773   2.252       .  S
In1762     O1767   2.240       .  S
In1762     O1769   2.245       .  S
In1762     O1770   2.250       .  S
In1762     O1771   2.248       .  S
In1762     O1774   2.258       .  S
C1763      O1769   1.261       .  A
C1763      O1771   1.259       .  A
C1763      C1837   1.477       .  S
O1764      C1772   1.260       .  A
O1765      C1772   1.261       .  A
C1766      O1773   1.262       .  A
C1766      O1767   1.259       .  A
C1766      C1825   1.485       .  S
C1768      O1770   1.259       .  A
C1768      O1774   1.258       .  A
C1768      C2044   1.487       .  S
C1772      C1816   1.478       .  S
In1775     O1777   2.236       .  S
In1775     O1778   2.240       .  S
In1775     O1786   2.232       .  S
In1775     O1780   2.255       .  S
In1775     O1782   2.258       .  S
In1775     O1783   2.236       .  S
In1775     O1784   2.240       .  S
In1775     O1787   2.245       .  S
C1776      O1782   1.262       .  A
C1776      O1784   1.258       .  A
C1776      C1801   1.478       .  S
O1777      C1785   1.258       .  A
O1778      C1785   1.258       .  A
C1779      O1786   1.259       .  A
C1779      O1780   1.264       .  A
C1779      C1828   1.487       .  S
C1781      O1783   1.261       .  A
C1781      O1787   1.261       .  A
C1781      C2344   1.488       .  S
C1785      C1813   1.469       .  S
In1788     O1790   2.231       .  S
In1788     O1791   2.231       .  S
In1788     O1799   2.236   1_556  S
In1788     O1795   2.256       .  S
In1788     O1796   2.238       .  S
In1788     O1797   2.233       .  S
C1789      O1795   1.263       .  A
C1789      O1797   1.258       .  A
C1789      C1804   1.472       .  S
O1790      C1798   1.260       .  A
O1791      C1798   1.262       .  A
C1792      O1793   1.260       .  A
C1792      C1888   1.479       .  S
C1794      O1796   1.259       .  A
C1794      C2353   1.483       .  S
C1798      C1876   1.473       .  S
C1801      C1802   1.404       .  A
C1801      C1806   1.414       .  A
C1802      C1803   1.399       .  A
C1802      H1811   1.084       .  S
C1803      C1804   1.412       .  A
C1803      S1807   1.805       .  S
C1804      C1805   1.402       .  A
C1805      C1806   1.400       .  A
C1805      H1812   1.084       .  S
C1806      S1808   1.802       .  S
S1807      H1810   1.407       .  S
S1808      H1809   1.408       .  S
C1813      C1814   1.402       .  A
C1814      C1815   1.397   1_565  A
C1814      H1823   1.084   1_565  S
C1815      S1819   1.803       .  S
C1816      C1817   1.405   1_545  A
C1817      C1818   1.399       .  A
C1817      H1824   1.084       .  S
C1818      S1820   1.803       .  S
C1825      C1826   1.403   1_545  A
C1825      C1830   1.417   1_545  A
C1826      C1827   1.400       .  A
C1826      H1835   1.084   1_565  S
C1827      C1828   1.417       .  A
C1827      S1831   1.799       .  S
C1828      C1829   1.405       .  A
C1829      C1830   1.400       .  A
C1829      H1836   1.084       .  S
C1830      S1832   1.802       .  S
S1831      H1834   1.408       .  S
S1832      H1833   1.408       .  S
C1837      C1838   1.402       .  A
C1837      C1842   1.415       .  A
C1838      C1839   1.398       .  A
C1838      H1847   1.084       .  S
C1839      C1840   1.416       .  A
C1839      S1843   1.803       .  S
C1840      C1841   1.403       .  A
C1841      C1842   1.399       .  A
C1841      H1848   1.084       .  S
C1842      S1844   1.802       .  S
S1843      H1846   1.407       .  S
S1844      H1845   1.407       .  S
C1849      C1850   1.404       .  A
C1849      C1854   1.416       .  A
C1850      C1851   1.398       .  A
C1850      H1859   1.084       .  S
C1851      C1852   1.414       .  A
C1851      S1855   1.802       .  S
C1852      C1853   1.403       .  A
C1853      C1854   1.397       .  A
C1853      H1860   1.084       .  S
C1854      S1856   1.803       .  S
S1855      H1858   1.407       .  S
S1856      H1857   1.407       .  S
C1861      C1862   1.404       .  A
C1861      C1866   1.413       .  A
C1862      C1863   1.399       .  A
C1862      H1871   1.084       .  S
C1863      C1864   1.414       .  A
C1863      S1867   1.802       .  S
C1864      C1865   1.407       .  A
C1865      C1866   1.402       .  A
C1865      H1872   1.084       .  S
C1866      S1868   1.802       .  S
S1867      H1870   1.407       .  S
S1868      H1869   1.406       .  S
C1873      C1874   1.406       .  A
C1873      C1878   1.415       .  A
C1874      C1875   1.400       .  A
C1874      H1883   1.082       .  S
C1875      C1876   1.412       .  A
C1875      S1879   1.810       .  S
C1876      C1877   1.402       .  A
C1877      C1878   1.396       .  A
C1877      H1884   1.084       .  S
C1878      S1880   1.801       .  S
S1879      H1882   1.407       .  S
S1880      H1881   1.408       .  S
C1885      C1886   1.403       .  A
C1885      C1890   1.412       .  A
C1886      C1887   1.400       .  A
C1886      H1895   1.084       .  S
C1887      C1888   1.413       .  A
C1887      S1891   1.802       .  S
C1888      C1889   1.405       .  A
C1889      C1890   1.399       .  A
C1889      H1896   1.084       .  S
C1890      S1892   1.804       .  S
S1891      H1894   1.407       .  S
S1892      H1893   1.407       .  S
C1897      C1898   1.403       .  A
C1897      C1902   1.413       .  A
C1898      C1899   1.400   1_565  A
C1898      H1907   1.084       .  S
C1899      C1900   1.414       .  A
C1899      S1903   1.803       .  S
C1900      C1901   1.403       .  A
C1901      C1902   1.399   1_545  A
C1901      H1908   1.084       .  S
C1902      S1904   1.802       .  S
S1903      H1906   1.407       .  S
S1904      H1905   1.406       .  S
C1909      C1910   1.404       .  A
C1909      C1914   1.416       .  A
C1910      C1911   1.399       .  A
C1910      H1919   1.084       .  S
C1911      C1912   1.417       .  A
C1911      S1915   1.802       .  S
C1912      C1913   1.407       .  A
C1913      C1914   1.402       .  A
C1913      H1920   1.084       .  S
C1914      S1916   1.803       .  S
S1915      H1918   1.408       .  S
S1916      H1917   1.408       .  S
C1921      C1922   1.403       .  A
C1921      C1926   1.414       .  A
C1922      C1923   1.397       .  A
C1922      H1931   1.084       .  S
C1923      C1924   1.417       .  A
C1923      S1927   1.800       .  S
C1924      C1925   1.406       .  A
C1925      C1926   1.398       .  A
C1925      H1932   1.084       .  S
C1926      S1928   1.803       .  S
S1927      H1930   1.408       .  S
S1928      H1929   1.408       .  S
C1933      C1934   1.406       .  A
C1933      C1938   1.416       .  A
C1934      C1935   1.404   1_565  A
C1934      H1943   1.084       .  S
C1935      C1936   1.418       .  A
C1935      S1939   1.802       .  S
C1936      C1937   1.404       .  A
C1937      C1938   1.400   1_545  A
C1937      H1944   1.084       .  S
C1938      S1940   1.802       .  S
S1939      H1942   1.407       .  S
S1940      H1941   1.408       .  S
C1945      C1946   1.402       .  A
C1945      C1950   1.415       .  A
C1946      C1947   1.396       .  A
C1946      H1955   1.084       .  S
C1947      C1948   1.414       .  A
C1947      S1951   1.803       .  S
C1948      C1949   1.404       .  A
C1949      C1950   1.400       .  A
C1949      H1956   1.084       .  S
C1950      S1952   1.804       .  S
S1951      H1954   1.408       .  S
S1952      H1953   1.408       .  S
C1957      C1958   1.404       .  A
C1957      C1962   1.415       .  A
C1958      C1959   1.397       .  A
C1958      H1967   1.084       .  S
C1959      C1960   1.416       .  A
C1959      S1963   1.803       .  S
C1960      C1961   1.405       .  A
C1961      C1962   1.401       .  A
C1961      H1968   1.084       .  S
C1962      S1964   1.802       .  S
S1963      H1966   1.408       .  S
S1964      H1965   1.408       .  S
C1969      C1970   1.404       .  A
C1969      C1974   1.414       .  A
C1970      C1971   1.399       .  A
C1970      H1979   1.084       .  S
C1971      C1972   1.415       .  A
C1971      S1975   1.803       .  S
C1972      C1973   1.405       .  A
C1973      C1974   1.401       .  A
C1973      H1980   1.084       .  S
C1974      S1976   1.803       .  S
S1975      H1978   1.408       .  S
S1976      H1977   1.408       .  S
C1981      C1986   1.416   1_565  A
C1982      C1983   1.400       .  A
C1982      H1991   1.084       .  S
C1983      C1984   1.413   1_565  A
C1983      S1987   1.804       .  S
C1985      C1986   1.399       .  A
C1985      H1992   1.084       .  S
C1986      S1988   1.803       .  S
S1987      H1990   1.407       .  S
S1988      H1989   1.407       .  S
C1993      C1994   1.405       .  A
C1993      C1998   1.416       .  A
C1994      C1995   1.402   1_565  A
C1994      H2003   1.084       .  S
C1995      C1996   1.414       .  A
C1995      S1999   1.802       .  S
C1996      C1997   1.404   1_545  A
C1997      C1998   1.399       .  A
C1997      H2004   1.084       .  S
C1998      S2000   1.803       .  S
S1999      H2002   1.408       .  S
S2000      H2001   1.408       .  S
C2005      C2006   1.403       .  A
C2005      C2010   1.412       .  A
C2006      C2007   1.404       .  A
C2006      H2015   1.084       .  S
C2007      C2008   1.418       .  A
C2007      S2011   1.801       .  S
C2008      C2009   1.405       .  A
C2009      C2010   1.396       .  A
C2009      H2016   1.084       .  S
C2010      S2012   1.804       .  S
S2011      H2014   1.408       .  S
S2012      H2013   1.406       .  S
C2017      C2018   1.405       .  A
C2017      C2022   1.419       .  A
C2018      C2019   1.400       .  A
C2018      H2027   1.084       .  S
C2019      C2020   1.413       .  A
C2020      C2021   1.403       .  A
C2021      C2022   1.406       .  A
C2021      H2028   1.084       .  S
C2022      S2024   1.802       .  S
S2023      H2026   1.407       .  S
S2024      H2025   1.408       .  S
C2029      C2030   1.407       .  A
C2029      C2034   1.416       .  A
C2030      C2031   1.402       .  A
C2030      H2039   1.084       .  S
C2031      C2032   1.413       .  A
C2031      S2035   1.803       .  S
C2032      C2033   1.402       .  A
C2033      C2034   1.398       .  A
C2033      H2040   1.083       .  S
C2034      S2036   1.802       .  S
S2035      H2038   1.407       .  S
S2036      H2037   1.408       .  S
C2041      C2042   1.407       .  A
C2041      C2046   1.414       .  A
C2042      C2043   1.403       .  A
C2042      H2051   1.084       .  S
C2043      C2044   1.415       .  A
C2043      S2047   1.802       .  S
C2044      C2045   1.404       .  A
C2045      C2046   1.402       .  A
C2045      H2052   1.083       .  S
C2046      S2048   1.806       .  S
S2047      H2050   1.408       .  S
S2048      H2049   1.407       .  S
C2053      C2058   1.416       .  A
C2054      C2055   1.397       .  A
C2054      H2063   1.084   1_554  S
C2055      S2059   1.802   1_554  S
C2056      C2057   1.405       .  A
C2057      C2058   1.402       .  A
C2057      H2064   1.084       .  S
C2058      S2060   1.802       .  S
S2059      H2062   1.407       .  S
S2060      H2061   1.408       .  S
C2065      C2066   1.404       .  A
C2065      C2070   1.414       .  A
C2066      C2067   1.402       .  A
C2066      H2075   1.084       .  S
C2067      C2068   1.418       .  A
C2067      S2071   1.801       .  S
C2068      C2069   1.405       .  A
C2069      C2070   1.401       .  A
C2069      H2076   1.082       .  S
C2070      S2072   1.809       .  S
S2071      H2074   1.408       .  S
S2072      H2073   1.407       .  S
C2077      C2078   1.406       .  A
C2077      C2082   1.418       .  A
C2078      H2087   1.084       .  S
C2079      C2080   1.411       .  A
C2079      S2083   1.805       .  S
C2080      C2081   1.402       .  A
C2081      H2088   1.084       .  S
C2082      S2084   1.800       .  S
S2083      H2086   1.408       .  S
S2084      H2085   1.408       .  S
C2089      C2090   1.405       .  A
C2089      C2094   1.419       .  A
C2090      C2091   1.397       .  A
C2090      H2099   1.084       .  S
C2091      C2092   1.415       .  A
C2091      S2095   1.803       .  S
C2092      C2093   1.405       .  A
C2093      C2094   1.404       .  A
C2093      H2100   1.084       .  S
C2094      S2096   1.800       .  S
S2095      H2098   1.408       .  S
S2096      H2097   1.407       .  S
C2101      C2102   1.408       .  A
C2101      C2106   1.417       .  A
C2102      C2103   1.401       .  A
C2102      H2111   1.084       .  S
C2103      C2104   1.413       .  A
C2104      C2105   1.404       .  A
C2105      C2106   1.401       .  A
C2105      H2112   1.084       .  S
C2106      S2108   1.800       .  S
S2107      H2110   1.408       .  S
S2108      H2109   1.408       .  S
C2113      C2114   1.403       .  A
C2113      C2118   1.414       .  A
C2114      C2115   1.398       .  A
C2114      H2123   1.084       .  S
C2115      C2116   1.414       .  A
C2115      S2119   1.804       .  S
C2116      C2117   1.402       .  A
C2117      C2118   1.397       .  A
C2117      H2124   1.084       .  S
C2118      S2120   1.803       .  S
S2119      H2122   1.407       .  S
S2120      H2121   1.407       .  S
C2125      C2126   1.403       .  A
C2125      C2130   1.415       .  A
C2126      C2127   1.400       .  A
C2126      H2135   1.084       .  S
C2127      C2128   1.416       .  A
C2127      S2131   1.802       .  S
C2128      C2129   1.404       .  A
C2129      C2130   1.397       .  A
C2129      H2136   1.084       .  S
C2130      S2132   1.803       .  S
S2131      H2134   1.406       .  S
S2132      H2133   1.408       .  S
C2137      C2138   1.400       .  A
C2137      C2142   1.412       .  A
C2138      C2139   1.396       .  A
C2138      H2147   1.084       .  S
C2139      C2140   1.414       .  A
C2139      S2143   1.801       .  S
C2140      C2141   1.405       .  A
C2141      C2142   1.400       .  A
C2141      H2148   1.084       .  S
C2142      S2144   1.804       .  S
S2143      H2146   1.405       .  S
S2144      H2145   1.406       .  S
C2149      C2150   1.404       .  A
C2149      C2154   1.416       .  A
C2150      C2151   1.403       .  A
C2150      H2159   1.084       .  S
C2151      C2152   1.417       .  A
C2151      S2155   1.802       .  S
C2152      C2153   1.402       .  A
C2153      C2154   1.397       .  A
C2153      H2160   1.084       .  S
C2154      S2156   1.803       .  S
S2156      H2157   1.408       .  S
C2161      C2162   1.404       .  A
C2161      C2166   1.415       .  A
C2162      C2163   1.398       .  A
C2162      H2171   1.084       .  S
C2163      C2164   1.417       .  A
C2163      S2167   1.802       .  S
C2164      C2165   1.406       .  A
C2165      C2166   1.399       .  A
C2165      H2172   1.084       .  S
C2166      S2168   1.802       .  S
S2167      H2170   1.408       .  S
S2168      H2169   1.408       .  S
C2173      C2178   1.415       .  A
C2174      C2175   1.401       .  A
C2174      H2183   1.084       .  S
C2175      S2179   1.802       .  S
C2176      C2177   1.405       .  A
C2177      C2178   1.401       .  A
C2177      H2184   1.084       .  S
C2178      S2180   1.802       .  S
S2179      H2182   1.407       .  S
S2180      H2181   1.408       .  S
C2185      C2186   1.405       .  A
C2185      C2190   1.416       .  A
C2186      C2187   1.399       .  A
C2186      H2195   1.084       .  S
C2187      C2188   1.416       .  A
C2187      S2191   1.803       .  S
C2188      C2189   1.406       .  A
C2189      C2190   1.403       .  A
C2189      H2196   1.084       .  S
C2190      S2192   1.801       .  S
S2191      H2194   1.408       .  S
S2192      H2193   1.408       .  S
C2197      C2198   1.404       .  A
C2197      C2202   1.416       .  A
C2198      C2199   1.400       .  A
C2198      H2207   1.084       .  S
C2199      C2200   1.416       .  A
C2199      S2203   1.802       .  S
C2200      C2201   1.405       .  A
C2201      C2202   1.401       .  A
C2201      H2208   1.084       .  S
C2202      S2204   1.803       .  S
S2203      H2206   1.408       .  S
S2204      H2205   1.408       .  S
C2209      C2210   1.404       .  A
C2209      C2214   1.415       .  A
C2211      C2212   1.417       .  A
C2211      S2215   1.802       .  S
C2213      C2214   1.400       .  A
C2213      H2220   1.084       .  S
C2214      S2216   1.804       .  S
S2215      H2218   1.407       .  S
S2216      H2217   1.408       .  S
C2221      C2222   1.403       .  A
C2221      C2226   1.414       .  A
C2222      C2223   1.400       .  A
C2222      H2231   1.084       .  S
C2223      C2224   1.416       .  A
C2223      S2227   1.800       .  S
C2224      C2225   1.404       .  A
C2225      C2226   1.397       .  A
C2225      H2232   1.084       .  S
C2226      S2228   1.803       .  S
S2227      H2230   1.406       .  S
S2228      H2229   1.408       .  S
C2233      C2234   1.404       .  A
C2233      C2238   1.413       .  A
C2234      C2235   1.400       .  A
C2234      H2243   1.084       .  S
C2235      C2236   1.415       .  A
C2235      S2239   1.803       .  S
C2236      C2237   1.404       .  A
C2237      C2238   1.399       .  A
C2237      H2244   1.084       .  S
C2238      S2240   1.803       .  S
S2239      H2242   1.408       .  S
S2240      H2241   1.408       .  S
C2245      C2246   1.404       .  A
C2245      C2250   1.415       .  A
C2246      C2247   1.399       .  A
C2246      H2255   1.084       .  S
C2247      C2248   1.416       .  A
C2247      S2251   1.802       .  S
C2248      C2249   1.405       .  A
C2249      C2250   1.401       .  A
C2249      H2256   1.084       .  S
C2250      S2252   1.802       .  S
S2251      H2254   1.408       .  S
S2252      H2253   1.408       .  S
C2257      C2258   1.404       .  A
C2257      C2262   1.415       .  A
C2258      C2259   1.399       .  A
C2258      H2267   1.084       .  S
C2259      C2260   1.414       .  A
C2259      S2263   1.804       .  S
C2260      C2261   1.402       .  A
C2261      C2262   1.398       .  A
C2261      H2268   1.084       .  S
C2262      S2264   1.803       .  S
S2263      H2266   1.407       .  S
S2264      H2265   1.408       .  S
C2269      C2270   1.406       .  A
C2269      C2274   1.415       .  A
C2270      C2271   1.402       .  A
C2270      H2279   1.084       .  S
C2271      C2272   1.415       .  A
C2271      S2275   1.801       .  S
C2272      C2273   1.405       .  A
C2273      C2274   1.397       .  A
C2273      H2280   1.084       .  S
C2274      S2276   1.803       .  S
S2275      H2278   1.408       .  S
S2276      H2277   1.408       .  S
C2281      C2282   1.403       .  A
C2281      C2286   1.415       .  A
C2282      C2283   1.395       .  A
C2282      H2291   1.084       .  S
C2283      C2284   1.414       .  A
C2283      S2287   1.803       .  S
C2284      C2285   1.404       .  A
C2285      C2286   1.401       .  A
C2285      H2292   1.084       .  S
C2286      S2288   1.802       .  S
S2287      H2290   1.408       .  S
S2288      H2289   1.408       .  S
C2293      C2294   1.405       .  A
C2293      C2298   1.414       .  A
C2294      C2295   1.401       .  A
C2294      H2303   1.084       .  S
C2295      C2296   1.414       .  A
C2295      S2299   1.802       .  S
C2296      C2297   1.403       .  A
C2297      C2298   1.396       .  A
C2297      H2304   1.084       .  S
C2298      S2300   1.803       .  S
S2299      H2302   1.407       .  S
S2300      H2301   1.407       .  S
C2305      C2306   1.402       .  A
C2305      C2310   1.414       .  A
C2306      C2307   1.396       .  A
C2306      H2315   1.084       .  S
C2307      C2308   1.417       .  A
C2307      S2311   1.802       .  S
C2308      C2309   1.407       .  A
C2309      C2310   1.402       .  A
C2309      H2316   1.084       .  S
C2310      S2312   1.803       .  S
S2311      H2314   1.408       .  S
S2312      H2313   1.408       .  S
C2317      C2318   1.407       .  A
C2317      C2322   1.417       .  A
C2318      C2319   1.398       .  A
C2318      H2327   1.084       .  S
C2319      C2320   1.411       .  A
C2319      S2323   1.803       .  S
C2320      C2321   1.403       .  A
C2321      C2322   1.401       .  A
C2321      H2328   1.084       .  S
C2322      S2324   1.802       .  S
S2323      H2326   1.407       .  S
S2324      H2325   1.408       .  S
C2329      C2330   1.402       .  A
C2329      C2334   1.411       .  A
C2330      C2331   1.397   1_655  A
C2330      H2339   1.084       .  S
C2331      C2332   1.417       .  A
C2331      S2335   1.801       .  S
C2332      C2333   1.408       .  A
C2333      C2334   1.399   1_455  A
C2333      H2340   1.084       .  S
C2334      S2336   1.803       .  S
S2335      H2338   1.408       .  S
S2336      H2337   1.407       .  S
C2341      C2342   1.404       .  A
C2341      C2346   1.413       .  A
C2342      C2343   1.398       .  A
C2342      H2351   1.084       .  S
C2343      C2344   1.416       .  A
C2343      S2347   1.801       .  S
C2344      C2345   1.408       .  A
C2345      C2346   1.404       .  A
C2345      H2352   1.082       .  S
C2346      S2348   1.808       .  S
S2347      H2350   1.408       .  S
S2348      H2349   1.407       .  S
C2353      C2358   1.417       .  A
C2354      C2355   1.401       .  A
C2354      H2363   1.084       .  S
C2355      S2359   1.801       .  S
C2356      C2357   1.405       .  A
C2357      C2358   1.399       .  A
C2357      H2364   1.084       .  S
C2358      S2360   1.803       .  S
S2359      H2362   1.407       .  S
S2360      H2361   1.408       .  S
C2365      C2366   1.402       .  A
C2365      C2370   1.410       .  A
C2366      C2367   1.398       .  A
C2366      H2375   1.084       .  S
C2367      C2368   1.413       .  A
C2367      S2371   1.802       .  S
C2368      C2369   1.404       .  A
C2369      C2370   1.396       .  A
C2369      H2376   1.084       .  S
C2370      S2372   1.803       .  S
S2371      H2374   1.408       .  S
S2372      H2373   1.406       .  S
C2377      C2378   1.405       .  A
C2377      C2382   1.416       .  A
C2378      C2379   1.398       .  A
C2378      H2387   1.084       .  S
C2379      C2380   1.414       .  A
C2379      S2383   1.803       .  S
C2380      C2381   1.403       .  A
C2381      C2382   1.398       .  A
C2381      H2388   1.084       .  S
C2382      S2384   1.802       .  S
S2383      H2386   1.408       .  S
S2384      H2385   1.408       .  S
C2389      C2390   1.405       .  A
C2389      C2394   1.415       .  A
C2390      C2391   1.399       .  A
C2390      H2399   1.084       .  S
C2391      C2392   1.412       .  A
C2391      S2395   1.804       .  S
C2392      C2393   1.403       .  A
C2393      C2394   1.400       .  A
C2393      H2400   1.084       .  S
C2394      S2396   1.802       .  S
S2395      H2398   1.407       .  S
S2396      H2397   1.405       .  S
C2401      C2402   1.404       .  A
C2401      C2406   1.415       .  A
C2402      C2403   1.398       .  A
C2402      H2411   1.084       .  S
C2403      C2404   1.417       .  A
C2403      S2407   1.802       .  S
C2404      C2405   1.406       .  A
C2405      C2406   1.403       .  A
C2405      H2412   1.084       .  S
C2406      S2408   1.802       .  S
S2407      H2410   1.408       .  S
S2408      H2409   1.408       .  S
C2413      C2414   1.405       .  A
C2413      C2418   1.416       .  A
C2414      H2423   1.084       .  S
C2415      C2416   1.414       .  A
C2415      S2419   1.805       .  S
C2416      C2417   1.404       .  A
C2417      H2424   1.084   1_554  S
C2418      S2420   1.801       .  S
S2419      H2422   1.408       .  S
S2420      H2421   1.408       .  S
C2425      C2426   1.408       .  A
C2425      C2430   1.418       .  A
C2426      C2427   1.403   1_655  A
C2426      H2435   1.084       .  S
C2427      C2428   1.414       .  A
C2427      S2431   1.801       .  S
C2428      C2429   1.403   1_455  A
C2429      C2430   1.397       .  A
C2429      H2436   1.084   1_655  S
C2430      S2432   1.802       .  S
S2431      H2434   1.407       .  S
S2432      H2433   1.408       .  S
C2437      C2438   1.406       .  A
C2437      C2442   1.415       .  A
C2438      C2439   1.407       .  A
C2438      H2447   1.082       .  S
C2439      C2440   1.418       .  A
C2439      S2443   1.809       .  S
C2440      C2441   1.405       .  A
C2441      C2442   1.398       .  A
S2443      H2446   1.406       .  S
S2444      H2445   1.408       .  S
C2449      C2450   1.404       .  A
C2449      C2454   1.414       .  A
C2450      C2451   1.397       .  A
C2450      H2459   1.084       .  S
C2451      C2452   1.415       .  A
C2451      S2455   1.803       .  S
C2452      C2453   1.403       .  A
C2453      C2454   1.399       .  A
C2453      H2460   1.084       .  S
C2454      S2456   1.801       .  S
S2455      H2458   1.408       .  S
S2456      H2457   1.408       .  S
C2461      C2462   1.404       .  A
C2461      C2466   1.414       .  A
C2462      C2463   1.399       .  A
C2462      H2471   1.084       .  S
C2463      C2464   1.415       .  A
C2463      S2467   1.801       .  S
C2464      C2465   1.405       .  A
C2465      C2466   1.398       .  A
C2465      H2472   1.084       .  S
C2466      S2468   1.802       .  S
S2467      H2470   1.408       .  S
S2468      H2469   1.407       .  S
C2473      C2474   1.400       .  A
C2473      C2478   1.412       .  A
C2474      C2475   1.399       .  A
C2474      H2483   1.084       .  S
C2475      C2476   1.419       .  A
C2475      S2479   1.802       .  S
C2476      C2477   1.406       .  A
C2477      C2478   1.399       .  A
C2477      H2484   1.084       .  S
C2478      S2480   1.804       .  S
S2479      H2482   1.408       .  S
S2480      H2481   1.407       .  S
C2485      C2490   1.415       .  A
C2486      C2487   1.401       .  A
C2486      H2495   1.084       .  S
C2487      S2491   1.802       .  S
C2488      C2489   1.405       .  A
C2489      C2490   1.397       .  A
C2489      H2496   1.084       .  S
C2490      S2492   1.803       .  S
S2491      H2494   1.408       .  S
S2492      H2493   1.408       .  S
C2497      C2498   1.404       .  A
C2497      C2502   1.415       .  A
C2498      C2499   1.400       .  A
C2498      H2507   1.084       .  S
C2499      C2500   1.416       .  A
C2499      S2503   1.802       .  S
C2500      C2501   1.405       .  A
C2501      C2502   1.400       .  A
C2501      H2508   1.084       .  S
C2502      S2504   1.802       .  S
S2503      H2506   1.407       .  S
S2504      H2505   1.408       .  S
C2509      C2510   1.404       .  A
C2509      C2514   1.416       .  A
C2510      C2511   1.400       .  A
C2510      H2519   1.084       .  S
C2511      C2512   1.416       .  A
C2511      S2515   1.803       .  S
C2512      C2513   1.404       .  A
C2513      C2514   1.401       .  A
C2513      H2520   1.084       .  S
C2514      S2516   1.803       .  S
S2515      H2518   1.408       .  S
S2516      H2517   1.408       .  S
C2521      C2526   1.416       .  A
C2522      C2523   1.401       .  A
C2522      H2531   1.084       .  S
C2523      S2527   1.802       .  S
C2524      C2525   1.403       .  A
C2525      C2526   1.402       .  A
C2525      H2532   1.086       .  S
C2526      S2528   1.808       .  S
S2527      H2530   1.408       .  S
S2528      H2529   1.407       .  S
C2533      C2534   1.404       .  A
C2533      C2538   1.412       .  A
C2534      C2535   1.399       .  A
C2534      H2543   1.084       .  S
C2535      C2536   1.414       .  A
C2535      S2539   1.802       .  S
C2536      C2537   1.406       .  A
C2537      C2538   1.398       .  A
C2537      H2544   1.084       .  S
C2538      S2540   1.803       .  S
S2539      H2542   1.407       .  S
S2540      H2541   1.408       .  S
C2545      C2546   1.403       .  A
C2545      C2550   1.416   1_556  A
C2546      H2555   1.084       .  S
C2547      C2548   1.413       .  A
C2547      S2551   1.803       .  S
C2548      C2549   1.403   1_655  A
C2549      H2556   1.084   1_455  S
C2550      S2552   1.803   1_554  S
S2551      H2554   1.408       .  S
S2552      H2553   1.408       .  S
C2557      C2558   1.405       .  A
C2557      C2562   1.419       .  A
C2558      C2559   1.395   1_655  A
C2558      H2567   1.084       .  S
C2559      C2560   1.413       .  A
C2559      S2563   1.804       .  S
C2560      C2561   1.404       .  A
C2561      C2562   1.404   1_455  A
C2561      H2568   1.084       .  S
C2562      S2564   1.800       .  S
S2563      H2566   1.408       .  S
S2564      H2565   1.407       .  S
C2569      C2570   1.403       .  A
C2569      C2574   1.413       .  A
C2570      C2571   1.397       .  A
C2570      H2579   1.084       .  S
C2571      C2572   1.414       .  A
C2572      C2573   1.406       .  A
C2573      C2574   1.399       .  A
C2573      H2580   1.084       .  S
C2574      S2576   1.803       .  S
S2575      H2578   1.408       .  S
S2576      H2577   1.407       .  S
C2581      C2582   1.405       .  A
C2581      C2586   1.415       .  A
C2582      C2583   1.400       .  A
C2582      H2591   1.084       .  S
C2583      C2584   1.416       .  A
C2583      S2587   1.800       .  S
C2584      C2585   1.406       .  A
C2585      C2586   1.399       .  A
C2585      H2592   1.084       .  S
C2586      S2588   1.802       .  S
S2587      H2590   1.407       .  S
S2588      H2589   1.408       .  S
C2593      C2594   1.403       .  A
C2593      C2598   1.413       .  A
C2594      C2595   1.400       .  A
C2594      H2603   1.084       .  S
C2595      C2596   1.414       .  A
C2595      S2599   1.804       .  S
C2596      C2597   1.402       .  A
C2597      C2598   1.397       .  A
C2597      H2604   1.084       .  S
C2598      S2600   1.804       .  S
S2599      H2602   1.407       .  S
S2600      H2601   1.407       .  S
C2605      C2606   1.406       .  A
C2605      C2610   1.419       .  A
C2606      C2607   1.397       .  A
C2606      H2615   1.084       .  S
C2607      C2608   1.414       .  A
C2607      S2611   1.803       .  S
C2608      C2609   1.405       .  A
C2609      C2610   1.404       .  A
C2609      H2616   1.084       .  S
C2610      S2612   1.800       .  S
S2612      H2613   1.408       .  S
C2617      C2618   1.405       .  A
C2617      C2622   1.416       .  A
C2618      C2619   1.396       .  A
C2618      H2627   1.084       .  S
C2619      C2620   1.414       .  A
C2619      S2623   1.802       .  S
C2620      C2621   1.404       .  A
C2621      C2622   1.399       .  A
C2621      H2628   1.084       .  S
C2622      S2624   1.802       .  S
S2623      H2626   1.408       .  S
S2624      H2625   1.408       .  S
C2629      C2630   1.406       .  A
C2629      C2634   1.416       .  A
C2630      C2631   1.396       .  A
C2630      H2639   1.084       .  S
C2631      C2632   1.414       .  A
C2631      S2635   1.803       .  S
C2632      C2633   1.405       .  A
C2633      C2634   1.399       .  A
C2633      H2640   1.084       .  S
C2634      S2636   1.800       .  S
S2635      H2638   1.408       .  S
S2636      H2637   1.407       .  S
C2641      C2642   1.404       .  A
C2641      C2646   1.416       .  A
C2642      C2643   1.396       .  A
C2642      H2651   1.084       .  S
C2643      C2644   1.413       .  A
C2643      S2647   1.802       .  S
C2644      C2645   1.404       .  A
C2645      C2646   1.400       .  A
C2645      H2652   1.084       .  S
C2646      S2648   1.802       .  S
S2648      H2649   1.408       .  S
C2653      C2654   1.405       .  A
C2653      C2658   1.414       .  A
C2654      C2655   1.401   1_655  A
C2654      H2663   1.084       .  S
C2655      C2656   1.414       .  A
C2655      S2659   1.802       .  S
C2656      C2657   1.404       .  A
C2657      C2658   1.396   1_455  A
C2657      H2664   1.084       .  S
C2658      S2660   1.803       .  S
S2659      H2662   1.408       .  S
S2660      H2661   1.408       .  S
