geometry optimzed in LAMMPS
_audit_creation_date              2020-11-30 
_audit_creation_method            'lammps2cif' 
_symmetry_space_group_name_H-M    'P1' 
_symmetry_Int_Tables_number       1 
_symmetry_cell_setting            triclinic 
loop_ 
_symmetry_equiv_pos_as_xyz 
  x,y,z 
_cell_length_a                    50.13920808 
_cell_length_b                    49.62976858615918 
_cell_length_c                    23.960419145239015 
_cell_angle_alpha                 90.10405724179401 
_cell_angle_beta                  89.93267773650105 
_cell_angle_gamma                 120.9797030067327 
loop_ 
_atom_site_label 
_atom_site_type_symbol 
_atom_site_fract_x 
_atom_site_fract_y 
_atom_site_fract_z 
_atom_site_charge 
C1          C  0.35305985  0.15886357  0.50439509     0.82300
N2          N  0.36392873  0.19018053  0.00416704    -0.76000
C3          C  0.34372264  0.20066580  0.00426114     0.84800
N4          N  0.31257853  0.17978848  0.00458689    -0.75900
C5          C  0.30168404  0.14843704  0.50481104     0.84900
N6          N  0.32195995  0.13800720  0.50473564    -0.77600
C7          C  0.15674739  0.35138433  0.00808516     0.82300
N8          N  0.13520337  0.32017690  0.00836877    -0.76000
C9          C  0.14442162  0.29879105  0.00886812     0.84800
N10         N  0.17518795  0.30865505  0.00918282    -0.75900
C11         C  0.19670663  0.33986295  0.00889120     0.84900
N12         N  0.18748416  0.36119564  0.00840714    -0.77600
C13         C  0.34482987  0.37534352  0.01155855     0.88600
C14         C  0.36522913  0.39234334  0.06235444    -0.51600
C15         C  0.39370586  0.39499763  0.06040490     0.11500
C16         C  0.39908203  0.38029188  0.00818802     0.22500
C17         C  0.36435707  0.39366795  0.46085342    -0.52400
C18         C  0.39281177  0.39633721  0.45922470     0.11600
C19         C  0.34302979  0.34367126  0.00921107    -0.51900
C20         C  0.37136680  0.34619881  0.00750675     0.12200
H21         H  0.35808980  0.40190672  0.09611924     0.16700
H22         H  0.42226345  0.38245265  0.00674482     0.02400
H23         H  0.35664349  0.40405605  0.42967094     0.17000
H24         H  0.32126952  0.32120062  0.00911951     0.16800
C25         C  0.46561722  0.12418351  0.00638341     0.88600
C26         C  0.46893849  0.10720057  0.45574646    -0.51600
C27         C  0.99488255  0.10486656  0.45779896     0.11500
C28         C  0.01514734  0.11980498  0.00994620     0.22500
C29         C  0.46662667  0.10606106  0.05726321    -0.52400
C30         C  0.99253589  0.10368257  0.05895321     0.11600
C31         C  0.49595229  0.15603063  0.00855841    -0.51900
C32         C  0.02188655  0.15379672  0.01037042     0.12200
H33         H  0.45213936  0.09750644  0.42191878     0.16700
H34         H  0.03626269  0.11788154  0.01143526     0.02400
H35         H  0.44831082  0.09558740  0.08846921     0.17000
H36         H  0.99686864  0.17839222  0.00833614     0.16800
C37         C  0.12776206  0.46909307  0.00995436     0.88600
C38         C  0.11060429  0.47202596  0.06044280    -0.51600
C39         C  0.10850358  0.99837328  0.05918754     0.11500
C40         C  0.12386941  0.01943103  0.00791269     0.22500
C41         C  0.11035096  0.47087177  0.45892998    -0.52400
C42         C  0.10822382  0.99717821  0.45802443     0.11600
C43         C  0.15942059  0.49963663  0.00913402    -0.51900
C44         C  0.15744964  0.02600204  0.00806825     0.12200
H45         H  0.10052895  0.45461934  0.09349337     0.16700
H46         H  0.12212499  0.04086282  0.00702567     0.02400
H47         H  0.10005919  0.45269181  0.42709633     0.17000
H48         H  0.18145976  0.00036704  0.00933759     0.16800
O49         O  0.48233129  0.45263632  0.18757587    -0.83200
O50         O  0.04445020  0.48407813  0.21458092    -0.80300
C51         C  0.05661309  0.50692895  0.18093601     1.00200
O52         O  0.05245642  0.02973973  0.18634535    -0.80300
O53         O  0.02279555  0.06162764  0.21360002    -0.83000
C54         C  0.49973830  0.05047104  0.18090052     1.04700
O55         O  0.47706570  0.02290893  0.18694875    -0.75700
O56         O  0.44495630  0.46034669  0.21491175    -0.75900
C57         C  0.45531234  0.44796733  0.18191393     1.04700
O58         O  0.46597047  0.44170991  0.30405542    -0.83200
O59         O  0.02787945  0.47820620  0.33080443    -0.80300
C60         C  0.05447749  0.50230766  0.33617262     1.00200
O61         O  0.06407355  0.02512654  0.30270963    -0.80300
O62         O  0.02937999  0.05167073  0.32997580    -0.82900
C63         C  0.50567118  0.05394478  0.33588899     1.04700
O64         O  0.48281607  0.04008573  0.30295540    -0.75800
O65         O  0.45580231  0.47779957  0.33090268    -0.75900
C66         C  0.45276607  0.45117638  0.33694183     1.04700
Cr67       Cr  0.50510966  0.46691556  0.25921428     1.93700
Cr68       Cr  0.03942557  0.03915222  0.25817522     1.93200
Cr69       Cr  0.46796950  0.50041833  0.25890535     1.39100
O70         O  0.50416307  0.50216215  0.25868784    -1.21000
C71         C  0.07601018  0.00691362  0.13684231    -0.11200
C72         C  0.09149272  0.00442539  0.10094101    -0.12700
C73         C  0.09071741  0.00196997  0.41562016    -0.11200
C74         C  0.07462545  0.00322383  0.37958524    -0.12700
C75         C  0.00459145  0.07308371  0.37978062    -0.11200
C76         C  0.00142530  0.08824156  0.41575278    -0.12700
C77         C  0.99884229  0.06991586  0.13750084    -0.11200
C78         C  0.99695070  0.08584146  0.10155029    -0.12700
C79         C  0.41535176  0.41443103  0.41666505    -0.11200
C80         C  0.43300186  0.43083293  0.38051441    -0.12900
C81         C  0.43546663  0.42785086  0.13815304    -0.11200
C82         C  0.41712277  0.41205113  0.10231342    -0.12700
C83         C  0.12157610  0.26576715  0.00978435    -0.16400
C84         C  0.10140833  0.23837344  0.01067019     0.07700
C85         C  0.07607666  0.20704451  0.01138595     0.09500
C86         C  0.05252277  0.18157766  0.01138429    -0.17300
C87         C  0.14718877  0.37413499  0.00844437    -0.16400
C88         C  0.14048624  0.39423780  0.00926961     0.07700
C89         C  0.13420879  0.41889406  0.01033225     0.09500
C90         C  0.13035166  0.44095216  0.01073354    -0.17300
C91         C  0.31402890  0.37194940  0.01298995    -0.16400
C92         C  0.28777744  0.36676357  0.01264922     0.07700
C93         C  0.25636552  0.35853113  0.01125854     0.09500
C94         C  0.22920502  0.35031395  0.00996807    -0.17300
C95         C  0.26875108  0.12616669  0.00519107    -0.16400
C96         C  0.24151315  0.10606673  0.00563980     0.07700
C97         C  0.21039989  0.08060101  0.00635527     0.09500
C98         C  0.18510630  0.05688369  0.00709563    -0.17300
C99         C  0.35527311  0.23383021  0.00424566    -0.16400
C100        C  0.36381164  0.26141748  0.00450601     0.07700
C101        C  0.37117999  0.29297952  0.00512526     0.09500
C102        C  0.37388746  0.31856422  0.00595678    -0.17300
C103        C  0.43805705  0.12723588  0.00459175    -0.16400
C104        C  0.41682010  0.13203232  0.00400046     0.07700
C105        C  0.39344376  0.13981816  0.00398913     0.09500
C106        C  0.37453183  0.14790182  0.00418899    -0.17300
C107        C  0.35305996  0.15886367  0.00439520     0.82300
N108        N  0.36392861  0.19018041  0.50416699    -0.76000
C109        C  0.34372255  0.20066580  0.50426118     0.84800
N110        N  0.31257845  0.17978852  0.50458714    -0.75900
C111        C  0.30168410  0.14843701  0.00481090     0.84900
N112        N  0.32196003  0.13800724  0.00473545    -0.77600
C113        C  0.15674725  0.35138420  0.50808539     0.82300
N114        N  0.13520328  0.32017683  0.50836879    -0.76000
C115        C  0.14442156  0.29879097  0.50886794     0.84800
N116        N  0.17518793  0.30865498  0.50918272    -0.75900
C117        C  0.19670659  0.33986286  0.50889123     0.84900
N118        N  0.18748404  0.36119552  0.50840728    -0.77600
C119        C  0.34482980  0.37534349  0.51155843     0.88600
C120        C  0.36522912  0.39234332  0.56235447    -0.51600
C121        C  0.39370586  0.39499769  0.56040477     0.11500
C122        C  0.39908201  0.38029196  0.50818785     0.22500
C123        C  0.36435718  0.39366795  0.96085349    -0.52400
C124        C  0.39281186  0.39633714  0.95922483     0.11600
C125        C  0.34302984  0.34367127  0.50921079    -0.51900
C126        C  0.37136685  0.34619880  0.50750676     0.12200
H127        H  0.35809002  0.40190686  0.59611934     0.16700
H128        H  0.42226349  0.38245284  0.50674450     0.02400
H129        H  0.35664373  0.40405592  0.92967099     0.17000
H130        H  0.32126952  0.32120061  0.50911961     0.16800
C131        C  0.46561737  0.12418375  0.50638331     0.88600
C132        C  0.46893841  0.10720044  0.95574653    -0.51600
C133        C  0.99488262  0.10486650  0.95779898     0.11500
C134        C  0.01514725  0.11980499  0.50994621     0.22500
C135        C  0.46662673  0.10606118  0.55726310    -0.52400
C136        C  0.99253576  0.10368259  0.55895332     0.11600
C137        C  0.49595243  0.15603086  0.50855829    -0.51900
C138        C  0.02188655  0.15379682  0.51037035     0.12200
H139        H  0.45213931  0.09750629  0.92191864     0.16700
H140        H  0.03626233  0.11788133  0.51143510     0.02400
H141        H  0.44831101  0.09558794  0.58846921     0.17000
H142        H  0.99686908  0.17839265  0.50833617     0.16800
C143        C  0.12776206  0.46909304  0.50995434     0.88600
C144        C  0.11060428  0.47202589  0.56044266    -0.51600
C145        C  0.10850349  0.99837321  0.55918732     0.11500
C146        C  0.12386937  0.01943092  0.50791251     0.22500
C147        C  0.11035092  0.47087177  0.95893003    -0.52400
C148        C  0.10822388  0.99717842  0.95802471     0.11600
C149        C  0.15942057  0.49963657  0.50913410    -0.51900
C150        C  0.15744950  0.02600195  0.50806819     0.12200
H151        H  0.10052918  0.45461932  0.59349334     0.16700
H152        H  0.12212514  0.04086270  0.50702553     0.02400
H153        H  0.10005909  0.45269177  0.92709662     0.17000
H154        H  0.18145938  0.00036695  0.50933767     0.16800
O155        O  0.48233138  0.45263640  0.68757578    -0.83200
O156        O  0.04445013  0.48407813  0.71458095    -0.80300
C157        C  0.05661316  0.50692899  0.68093616     1.00200
O158        O  0.05245641  0.02973972  0.68634535    -0.80300
O159        O  0.02279558  0.06162757  0.71360000    -0.83000
C160        C  0.49973827  0.05047106  0.68090055     1.04700
O161        O  0.47706570  0.02290904  0.68694879    -0.75700
O162        O  0.44495642  0.46034678  0.71491190    -0.75900
C163        C  0.45531242  0.44796740  0.68191397     1.04700
O164        O  0.46597053  0.44170999  0.80405537    -0.83200
O165        O  0.02787932  0.47820619  0.83080454    -0.80300
C166        C  0.05447746  0.50230749  0.83617255     1.00200
O167        O  0.06407363  0.02512652  0.80270963    -0.80300
O168        O  0.02938001  0.05167070  0.82997578    -0.82900
C169        C  0.50567117  0.05394478  0.83588902     1.04700
O170        O  0.48281606  0.04008568  0.80295548    -0.75800
O171        O  0.45580243  0.47779959  0.83090274    -0.75900
C172        C  0.45276612  0.45117640  0.83694180     1.04700
Cr173      Cr  0.50510970  0.46691558  0.75921420     1.93700
Cr174      Cr  0.03942566  0.03915226  0.75817521     1.93200
Cr175      Cr  0.46796963  0.50041836  0.75890543     1.39100
O176        O  0.50416325  0.50216223  0.75868782    -1.21000
C177        C  0.07601016  0.00691357  0.63684232    -0.11200
C178        C  0.09149272  0.00442534  0.60094101    -0.12700
C179        C  0.09071733  0.00196990  0.91562020    -0.11200
C180        C  0.07462541  0.00322390  0.87958538    -0.12700
C181        C  0.00459139  0.07308361  0.87978058    -0.11200
C182        C  0.00142530  0.08824147  0.91575281    -0.12700
C183        C  0.99884235  0.06991592  0.63750087    -0.11200
C184        C  0.99695070  0.08584151  0.60155038    -0.12700
C185        C  0.41535179  0.41443099  0.91666497    -0.11200
C186        C  0.43300192  0.43083291  0.88051432    -0.12900
C187        C  0.43546670  0.42785088  0.63815300    -0.11200
C188        C  0.41712270  0.41205110  0.60231351    -0.12700
C189        C  0.12157602  0.26576712  0.50978430    -0.16400
C190        C  0.10140830  0.23837340  0.51067021     0.07700
C191        C  0.07607673  0.20704448  0.51138599     0.09500
C192        C  0.05252279  0.18157770  0.51138431    -0.17300
C193        C  0.14718866  0.37413489  0.50844446    -0.16400
C194        C  0.14048625  0.39423777  0.50926982     0.07700
C195        C  0.13420872  0.41889400  0.51033233     0.09500
C196        C  0.13035167  0.44095217  0.51073376    -0.17300
C197        C  0.31402877  0.37194933  0.51298988    -0.16400
C198        C  0.28777733  0.36676348  0.51264925     0.07700
C199        C  0.25636553  0.35853107  0.51125858     0.09500
C200        C  0.22920506  0.35031392  0.50996811    -0.17300
C201        C  0.26875104  0.12616669  0.50519151    -0.16400
C202        C  0.24151306  0.10606677  0.50564009     0.07700
C203        C  0.21039979  0.08060093  0.50635547     0.09500
C204        C  0.18510613  0.05688365  0.50709563    -0.17300
C205        C  0.35527302  0.23383028  0.50424544    -0.16400
C206        C  0.36381171  0.26141758  0.50450600     0.07700
C207        C  0.37118006  0.29297951  0.50512512     0.09500
C208        C  0.37388749  0.31856416  0.50595669    -0.17300
C209        C  0.43805702  0.12723589  0.50459150    -0.16400
C210        C  0.41682005  0.13203234  0.50400041     0.07700
C211        C  0.39344369  0.13981813  0.50398876     0.09500
C212        C  0.37453177  0.14790178  0.50418896    -0.17300
C213        C  0.35305995  0.65886370  0.50439509     0.82300
N214        N  0.36392863  0.69018042  0.00416705    -0.76000
C215        C  0.34372262  0.70066582  0.00426114     0.84800
N216        N  0.31257854  0.67978857  0.00458689    -0.75900
C217        C  0.30168408  0.64843706  0.50481104     0.84900
N218        N  0.32196002  0.63800727  0.50473564    -0.77600
C219        C  0.15674719  0.85138416  0.00808516     0.82300
N220        N  0.13520322  0.82017677  0.00836877    -0.76000
C221        C  0.14442154  0.79879099  0.00886812     0.84800
N222        N  0.17518793  0.80865506  0.00918282    -0.75900
C223        C  0.19670656  0.83986293  0.00889120     0.84900
N224        N  0.18748400  0.86119555  0.00840714    -0.77600
C225        C  0.34482979  0.87534352  0.01155856     0.88600
C226        C  0.36522912  0.89234335  0.06235445    -0.51600
C227        C  0.39370581  0.89499767  0.06040482     0.11500
C228        C  0.39908189  0.88029189  0.00818788     0.22500
C229        C  0.36435712  0.89366789  0.46085335    -0.52400
C230        C  0.39281183  0.89633715  0.45922479     0.11600
C231        C  0.34302979  0.84367129  0.00921096    -0.51900
C232        C  0.37136673  0.84619877  0.00750665     0.12200
H233        H  0.35808994  0.90190679  0.09611945     0.16700
H234        H  0.42226329  0.88245265  0.00674457     0.02400
H235        H  0.35664365  0.90405587  0.42967088     0.17000
H236        H  0.32126941  0.82120061  0.00911945     0.16800
C237        C  0.46561738  0.62418375  0.00638319     0.88600
C238        C  0.46893850  0.60720056  0.45574629    -0.51600
C239        C  0.99488263  0.60486660  0.45779887     0.11500
C240        C  0.01514724  0.61980498  0.00994612     0.22500
C241        C  0.46662685  0.60606124  0.05726309    -0.52400
C242        C  0.99253573  0.60368258  0.05895323     0.11600
C243        C  0.49595243  0.65603085  0.00855826    -0.51900
C244        C  0.02188654  0.65379680  0.01037030     0.12200
H245        H  0.45213916  0.59750599  0.42191870     0.16700
H246        H  0.03626233  0.61788133  0.01143508     0.02400
H247        H  0.44831141  0.59558800  0.08846907     0.17000
H248        H  0.99686908  0.67839263  0.00833607     0.16800
C249        C  0.12776203  0.96909311  0.00995454     0.88600
C250        C  0.11060425  0.97202590  0.06044285    -0.51600
C251        C  0.10850351  0.49837329  0.05918739     0.11500
C252        C  0.12386947  0.51943107  0.00791271     0.22500
C253        C  0.11035083  0.97087164  0.45892984    -0.52400
C254        C  0.10822399  0.49717838  0.45802450     0.11600
C255        C  0.15942055  0.99963671  0.00913411    -0.51900
C256        C  0.15744968  0.52600198  0.00806825     0.12200
H257        H  0.10052940  0.95461943  0.09349423     0.16700
H258        H  0.12212528  0.54086288  0.00702585     0.02400
H259        H  0.10005861  0.95269132  0.42709631     0.17000
H260        H  0.18145979  0.50036682  0.00933763     0.16800
O261        O  0.48233132  0.95263639  0.18757587    -0.83200
O262        O  0.04445018  0.98407814  0.21458093    -0.80300
C263        C  0.05661307  0.00692892  0.18093597     1.00200
O264        O  0.05245634  0.52973970  0.18634525    -0.80300
O265        O  0.02279547  0.56162758  0.21360004    -0.83000
C266        C  0.49973827  0.55047108  0.18090059     1.04700
O267        O  0.47706574  0.52290901  0.18694864    -0.75700
O268        O  0.44495643  0.96034676  0.21491191    -0.75900
C269        C  0.45531239  0.94796739  0.18191398     1.04700
O270        O  0.46597058  0.94171001  0.30405538    -0.83200
O271        O  0.02787941  0.97820625  0.33080450    -0.80300
C272        C  0.05447753  0.00230758  0.33617251     1.00200
O273        O  0.06407351  0.52512653  0.30270958    -0.80300
O274        O  0.02938000  0.55167074  0.32997586    -0.82900
C275        C  0.50567117  0.55394484  0.33588895     1.04700
O276        O  0.48281599  0.54008567  0.30295551    -0.75800
O277        O  0.45580239  0.97779955  0.33090276    -0.75900
C278        C  0.45276616  0.95117641  0.33694185     1.04700
Cr279      Cr  0.50510970  0.96691556  0.25921421     1.93700
Cr280      Cr  0.03942556  0.53915220  0.25817518     1.93200
Cr281      Cr  0.46796956  0.00041830  0.25890545     1.39100
O282        O  0.50416316  0.00216216  0.25868784    -1.21000
C283        C  0.07601020  0.50691364  0.13684241    -0.11200
C284        C  0.09149279  0.50442547  0.10094114    -0.12700
C285        C  0.09071738  0.50196996  0.41562020    -0.11200
C286        C  0.07462555  0.50322395  0.37958514    -0.12700
C287        C  0.00459152  0.57308374  0.37978059    -0.11200
C288        C  0.00142538  0.58824158  0.41575277    -0.12700
C289        C  0.99884229  0.56991591  0.13750086    -0.11200
C290        C  0.99695063  0.58584152  0.10155041    -0.12700
C291        C  0.41535177  0.91443099  0.41666499    -0.11200
C292        C  0.43300191  0.93083293  0.38051438    -0.12900
C293        C  0.43546670  0.92785087  0.13815299    -0.11200
C294        C  0.41712273  0.91205108  0.10231347    -0.12700
C295        C  0.12157603  0.76576714  0.00978434    -0.16400
C296        C  0.10140832  0.73837342  0.01067018     0.07700
C297        C  0.07607668  0.70704450  0.01138596     0.09500
C298        C  0.05252279  0.68157767  0.01138428    -0.17300
C299        C  0.14718861  0.87413483  0.00844437    -0.16400
C300        C  0.14048618  0.89423773  0.00926960     0.07700
C301        C  0.13420872  0.91889405  0.01033227     0.09500
C302        C  0.13035170  0.94095224  0.01073368    -0.17300
C303        C  0.31402881  0.87194939  0.01299000    -0.16400
C304        C  0.28777733  0.86676350  0.01264922     0.07700
C305        C  0.25636548  0.85853115  0.01125854     0.09500
C306        C  0.22920498  0.85031392  0.00996808    -0.17300
C307        C  0.26875110  0.62616674  0.00519107    -0.16400
C308        C  0.24151313  0.60606680  0.00563979     0.07700
C309        C  0.21039986  0.58060099  0.00635527     0.09500
C310        C  0.18510619  0.55688374  0.00709563    -0.17300
C311        C  0.35527310  0.73383027  0.00424566    -0.16400
C312        C  0.36381175  0.76141756  0.00450602     0.07700
C313        C  0.37117999  0.79297949  0.00512526     0.09500
C314        C  0.37388744  0.81856417  0.00595677    -0.17300
C315        C  0.43805702  0.62723587  0.00459178    -0.16400
C316        C  0.41682007  0.63203233  0.00400047     0.07700
C317        C  0.39344371  0.63981810  0.00398913     0.09500
C318        C  0.37453179  0.64790176  0.00418899    -0.17300
C319        C  0.35305989  0.65886358  0.00439520     0.82300
N320        N  0.36392872  0.69018055  0.50416699    -0.76000
C321        C  0.34372264  0.70066585  0.50426118     0.84800
N322        N  0.31257851  0.67978852  0.50458714    -0.75900
C323        C  0.30168412  0.64843709  0.00481090     0.84900
N324        N  0.32196001  0.63800721  0.00473545    -0.77600
C325        C  0.15674727  0.85138422  0.50808541     0.82300
N326        N  0.13520327  0.82017684  0.50836879    -0.76000
C327        C  0.14442158  0.79879102  0.50886793     0.84800
N328        N  0.17518796  0.80865507  0.50918272    -0.75900
C329        C  0.19670660  0.83986291  0.50889123     0.84900
N330        N  0.18748408  0.86119554  0.50840729    -0.77600
C331        C  0.34482984  0.87534344  0.51155836     0.88600
C332        C  0.36522906  0.89234329  0.56235439    -0.51600
C333        C  0.39370582  0.89499759  0.56040480     0.11500
C334        C  0.39908201  0.88029184  0.50818795     0.22500
C335        C  0.36435705  0.89366793  0.96085354    -0.52400
C336        C  0.39281176  0.89633723  0.95922472     0.11600
C337        C  0.34302986  0.84367124  0.50921086    -0.51900
C338        C  0.37136683  0.84619876  0.50750687     0.12200
H339        H  0.35808962  0.90190634  0.59611916     0.16700
H340        H  0.42226342  0.88245260  0.50674471     0.02400
H341        H  0.35664345  0.90405608  0.92967115     0.17000
H342        H  0.32126952  0.82120056  0.50911960     0.16800
C343        C  0.46561732  0.62418370  0.50638316     0.88600
C344        C  0.46893848  0.60720056  0.95574643    -0.51600
C345        C  0.99488250  0.60486647  0.95779891     0.11500
C346        C  0.01514735  0.61980510  0.50994618     0.22500
C347        C  0.46662675  0.60606113  0.55726301    -0.52400
C348        C  0.99253587  0.60368264  0.55895330     0.11600
C349        C  0.49595236  0.65603085  0.50855832    -0.51900
C350        C  0.02188654  0.65379690  0.51037044     0.12200
H351        H  0.45213904  0.59750600  0.92191887     0.16700
H352        H  0.03626276  0.61788178  0.51143509     0.02400
H353        H  0.44831124  0.59558786  0.58846893     0.17000
H354        H  0.99686881  0.67839271  0.50833621     0.16800
C355        C  0.12776185  0.96909295  0.50995423     0.88600
C356        C  0.11060418  0.97202583  0.56044277    -0.51600
C357        C  0.10850353  0.49837322  0.55918735     0.11500
C358        C  0.12386946  0.51943100  0.50791263     0.22500
C359        C  0.11035092  0.97087183  0.95893021    -0.52400
C360        C  0.10822390  0.49717840  0.95802463     0.11600
C361        C  0.15942044  0.99963661  0.50913401    -0.51900
C362        C  0.15744970  0.52600193  0.50806830     0.12200
H363        H  0.10052902  0.95461931  0.59349340     0.16700
H364        H  0.12212525  0.54086273  0.50702576     0.02400
H365        H  0.10005911  0.95269187  0.92709680     0.17000
H366        H  0.18145980  0.50036677  0.50933770     0.16800
O367        O  0.48233127  0.95263638  0.68757584    -0.83200
O368        O  0.04445017  0.98407805  0.71458108    -0.80300
C369        C  0.05661312  0.00692892  0.68093617     1.00200
O370        O  0.05245632  0.52973967  0.68634530    -0.80300
O371        O  0.02279547  0.56162755  0.71359999    -0.83000
C372        C  0.49973830  0.55047103  0.68090050     1.04700
O373        O  0.47706573  0.52290898  0.68694867    -0.75700
O374        O  0.44495628  0.96034673  0.71491178    -0.75900
C375        C  0.45531231  0.94796738  0.68191391     1.04700
O376        O  0.46597044  0.94170984  0.80405539    -0.83200
O377        O  0.02787939  0.97820623  0.83080451    -0.80300
C378        C  0.05447747  0.00230765  0.83617274     1.00200
O379        O  0.06407349  0.52512645  0.80270972    -0.80300
O380        O  0.02937989  0.55167063  0.82997585    -0.82900
C381        C  0.50567120  0.55394488  0.83588892     1.04700
O382        O  0.48281605  0.54008576  0.80295545    -0.75800
O383        O  0.45580234  0.97779944  0.83090274    -0.75900
C384        C  0.45276606  0.95117627  0.83694181     1.04700
Cr385      Cr  0.50510962  0.96691556  0.75921431     1.93700
Cr386      Cr  0.03942555  0.53915223  0.75817520     1.93200
Cr387      Cr  0.46796953  0.00041833  0.75890544     1.39100
O388        O  0.50416309  0.00216217  0.75868780    -1.21000
C389        C  0.07601006  0.50691352  0.63684223    -0.11200
C390        C  0.09149275  0.50442536  0.60094110    -0.12700
C391        C  0.09071734  0.50196998  0.91562019    -0.11200
C392        C  0.07462538  0.50322391  0.87958534    -0.12700
C393        C  0.00459145  0.57308368  0.87978058    -0.11200
C394        C  0.00142529  0.58824153  0.91575267    -0.12700
C395        C  0.99884229  0.56991589  0.63750091    -0.11200
C396        C  0.99695075  0.58584148  0.60155031    -0.12700
C397        C  0.41535174  0.91443099  0.91666485    -0.11200
C398        C  0.43300187  0.93083285  0.88051421    -0.12900
C399        C  0.43546658  0.92785090  0.63815299    -0.11200
C400        C  0.41712270  0.91205116  0.60231337    -0.12700
C401        C  0.12157612  0.76576712  0.50978431    -0.16400
C402        C  0.10140829  0.73837344  0.51067022     0.07700
C403        C  0.07607664  0.70704457  0.51138599     0.09500
C404        C  0.05252276  0.68157775  0.51138433    -0.17300
C405        C  0.14718870  0.87413489  0.50844446    -0.16400
C406        C  0.14048611  0.89423766  0.50926963     0.07700
C407        C  0.13420873  0.91889401  0.51033230     0.09500
C408        C  0.13035157  0.94095211  0.51073363    -0.17300
C409        C  0.31402882  0.87194928  0.51298982    -0.16400
C410        C  0.28777735  0.86676342  0.51264924     0.07700
C411        C  0.25636549  0.85853106  0.51125857     0.09500
C412        C  0.22920501  0.85031389  0.50996810    -0.17300
C413        C  0.26875105  0.62616676  0.50519151    -0.16400
C414        C  0.24151313  0.60606680  0.50564009     0.07700
C415        C  0.21039992  0.58060099  0.50635546     0.09500
C416        C  0.18510626  0.55688371  0.50709564    -0.17300
C417        C  0.35527318  0.73383033  0.50424544    -0.16400
C418        C  0.36381174  0.76141760  0.50450600     0.07700
C419        C  0.37118007  0.79297957  0.50512511     0.09500
C420        C  0.37388754  0.81856423  0.50595671    -0.17300
C421        C  0.43805702  0.62723592  0.50459158    -0.16400
C422        C  0.41682008  0.63203239  0.50400044     0.07700
C423        C  0.39344379  0.63981825  0.50398875     0.09500
C424        C  0.37453184  0.64790187  0.50418896    -0.17300
C425        C  0.85305988  0.15886364  0.50439510     0.82300
N426        N  0.86392867  0.19018052  0.00416697    -0.76000
C427        C  0.84372260  0.20066579  0.00426117     0.84800
N428        N  0.81257847  0.17978846  0.00458706    -0.75900
C429        C  0.80168408  0.14843701  0.50481090     0.84900
N430        N  0.82195998  0.13800719  0.50473560    -0.77600
C431        C  0.65674730  0.35138430  0.00808536     0.82300
N432        N  0.63520327  0.32017689  0.00836871    -0.76000
C433        C  0.64442154  0.29879106  0.00886811     0.84800
N434        N  0.67518790  0.30865507  0.00918295    -0.75900
C435        C  0.69670659  0.33986296  0.00889136     0.84900
N436        N  0.68748411  0.36119562  0.00840740    -0.77600
C437        C  0.84482984  0.37534368  0.01155842     0.88600
C438        C  0.86522909  0.39234337  0.06235450    -0.51600
C439        C  0.89370576  0.39499762  0.06040481     0.11500
C440        C  0.89908191  0.38029188  0.00818782     0.22500
C441        C  0.86435716  0.39366796  0.46085346    -0.52400
C442        C  0.89281186  0.39633719  0.45922481     0.11600
C443        C  0.84302981  0.34367140  0.00921089    -0.51900
C444        C  0.87136679  0.34619887  0.00750682     0.12200
H445        H  0.85808992  0.40190685  0.09611932     0.16700
H446        H  0.92226315  0.38245262  0.00674450     0.02400
H447        H  0.85664373  0.40405597  0.42967115     0.17000
H448        H  0.82126971  0.32120103  0.00911964     0.16800
C449        C  0.96561731  0.12418357  0.00638338     0.88600
C450        C  0.96893842  0.10720056  0.45574645    -0.51600
C451        C  0.49488264  0.10486657  0.45779894     0.11500
C452        C  0.51514725  0.11980495  0.00994627     0.22500
C453        C  0.96662677  0.10606108  0.05726313    -0.52400
C454        C  0.49253571  0.10368252  0.05895336     0.11600
C455        C  0.99595228  0.15603066  0.00855832    -0.51900
C456        C  0.52188649  0.15379665  0.01037049     0.12200
H457        H  0.95213933  0.09750643  0.42191870     0.16700
H458        H  0.53626246  0.11788157  0.01143529     0.02400
H459        H  0.94831107  0.09558750  0.08846887     0.17000
H460        H  0.49686884  0.17839213  0.00833620     0.16800
C461        C  0.62776196  0.46909305  0.00995469     0.88600
C462        C  0.61060421  0.47202595  0.06044299    -0.51600
C463        C  0.60850349  0.99837324  0.05918763     0.11500
C464        C  0.62386946  0.01943100  0.00791278     0.22500
C465        C  0.61035091  0.47087176  0.45892993    -0.52400
C466        C  0.60822394  0.99717842  0.45802464     0.11600
C467        C  0.65942047  0.49963668  0.00913419    -0.51900
C468        C  0.65744968  0.02600192  0.00806844     0.12200
H469        H  0.60052890  0.45461928  0.09349419     0.16700
H470        H  0.62212527  0.04086282  0.00702577     0.02400
H471        H  0.60005906  0.45269178  0.42709636     0.17000
H472        H  0.68145975  0.00036679  0.00933872     0.16800
O473        O  0.98233129  0.45263631  0.18757590    -0.83200
O474        O  0.54445016  0.48407809  0.21458091    -0.80300
C475        C  0.55661309  0.50692894  0.18093604     1.00200
O476        O  0.55245643  0.02973975  0.18634532    -0.80300
O477        O  0.52279554  0.06162769  0.21360007    -0.83000
C478        C  0.99973826  0.05047104  0.18090056     1.04700
O479        O  0.97706567  0.02290893  0.18694874    -0.75700
O480        O  0.94495632  0.46034671  0.21491177    -0.75900
C481        C  0.95531233  0.44796733  0.18191394     1.04700
O482        O  0.96597051  0.44170988  0.30405548    -0.83200
O483        O  0.52787941  0.47820626  0.33080452    -0.80300
C484        C  0.55447748  0.50230764  0.33617264     1.00200
O485        O  0.56407352  0.02512654  0.30270956    -0.80300
O486        O  0.52937999  0.05167071  0.32997579    -0.82900
C487        C  0.00567114  0.05394475  0.33588907     1.04700
O488        O  0.98281600  0.04008570  0.30295544    -0.75800
O489        O  0.95580239  0.47779956  0.33090272    -0.75900
C490        C  0.95276610  0.45117635  0.33694183     1.04700
Cr491      Cr  0.00510970  0.46691552  0.25921427     1.93700
Cr492      Cr  0.53942560  0.03915224  0.25817518     1.93200
Cr493      Cr  0.96796955  0.50041830  0.25890540     1.39100
O494        O  0.00416314  0.50216213  0.25868786    -1.21000
C495        C  0.57601022  0.00691371  0.13684248    -0.11200
C496        C  0.59149275  0.00442548  0.10094121    -0.12700
C497        C  0.59071739  0.00197004  0.41562028    -0.11200
C498        C  0.57462543  0.00322384  0.37958522    -0.12700
C499        C  0.50459143  0.07308366  0.37978050    -0.11200
C500        C  0.50142533  0.08824152  0.41575269    -0.12700
C501        C  0.49884233  0.06991589  0.13750089    -0.11200
C502        C  0.49695063  0.08584143  0.10155037    -0.12700
C503        C  0.91535174  0.41443104  0.41666500    -0.11200
C504        C  0.93300194  0.43083289  0.38051442    -0.12900
C505        C  0.93546658  0.42785082  0.13815298    -0.11200
C506        C  0.91712266  0.41205111  0.10231337    -0.12700
C507        C  0.62157607  0.26576717  0.00978431    -0.16400
C508        C  0.60140828  0.23837346  0.01067018     0.07700
C509        C  0.57607665  0.20704449  0.01138595     0.09500
C510        C  0.55252272  0.18157764  0.01138428    -0.17300
C511        C  0.64718872  0.37413493  0.00844437    -0.16400
C512        C  0.64048618  0.39423774  0.00926978     0.07700
C513        C  0.63420872  0.41889406  0.01033248     0.09500
C514        C  0.63035161  0.44095220  0.01073381    -0.17300
C515        C  0.81402879  0.37194936  0.01298990    -0.16400
C516        C  0.78777735  0.36676356  0.01264920     0.07700
C517        C  0.75636551  0.35853113  0.01125853     0.09500
C518        C  0.72920503  0.35031397  0.00996827    -0.17300
C519        C  0.76875101  0.12616670  0.00519120    -0.16400
C520        C  0.74151309  0.10606676  0.00563978     0.07700
C521        C  0.71039990  0.08060097  0.00635547     0.09500
C522        C  0.68510626  0.05688371  0.00709569    -0.17300
C523        C  0.85527312  0.23383024  0.00424564    -0.16400
C524        C  0.86381167  0.26141751  0.00450602     0.07700
C525        C  0.87118002  0.29297955  0.00512527     0.09500
C526        C  0.87388747  0.31856424  0.00595668    -0.17300
C527        C  0.93805706  0.12723586  0.00459170    -0.16400
C528        C  0.91682007  0.13203230  0.00400044     0.07700
C529        C  0.89344373  0.13981820  0.00398891     0.09500
C530        C  0.87453174  0.14790181  0.00418893    -0.17300
C531        C  0.85305990  0.15886367  0.00439507     0.82300
N532        N  0.86392860  0.19018047  0.50416700    -0.76000
C533        C  0.84372258  0.20066582  0.50426120     0.84800
N534        N  0.81257852  0.17978850  0.50458709    -0.75900
C535        C  0.80168404  0.14843700  0.00481087     0.84900
N536        N  0.82195998  0.13800723  0.00473557    -0.77600
C537        C  0.65674730  0.35138423  0.50808521     0.82300
N538        N  0.63520331  0.32017682  0.50836882    -0.76000
C539        C  0.64442161  0.29879099  0.50886796     0.84800
N540        N  0.67518795  0.30865504  0.50918275    -0.75900
C541        C  0.69670659  0.33986290  0.50889103     0.84900
N542        N  0.68748408  0.36119557  0.50840719    -0.77600
C543        C  0.84482986  0.37534349  0.51155849     0.88600
C544        C  0.86522908  0.39234333  0.56235454    -0.51600
C545        C  0.89370586  0.39499770  0.56040481     0.11500
C546        C  0.89908205  0.38029194  0.50818793     0.22500
C547        C  0.86435703  0.39366800  0.96085329    -0.52400
C548        C  0.89281168  0.39633720  0.95922458     0.11600
C549        C  0.84302982  0.34367127  0.50921082    -0.51900
C550        C  0.87136682  0.34619879  0.50750676     0.12200
H551        H  0.85808987  0.40190681  0.59611924     0.16700
H552        H  0.92226354  0.38245282  0.50674460     0.02400
H553        H  0.85664338  0.40405602  0.92967066     0.17000
H554        H  0.82126947  0.32120058  0.50911958     0.16800
C555        C  0.96561729  0.12418369  0.50638335     0.88600
C556        C  0.96893842  0.10720046  0.95574653    -0.51600
C557        C  0.49488257  0.10486652  0.95779894     0.11500
C558        C  0.51514731  0.11980504  0.50994621     0.22500
C559        C  0.96662670  0.10606115  0.55726313    -0.52400
C560        C  0.49253582  0.10368260  0.55895333     0.11600
C561        C  0.99595240  0.15603083  0.50855830    -0.51900
C562        C  0.52188661  0.15379688  0.51037036     0.12200
H563        H  0.95213929  0.09750630  0.92191885     0.16700
H564        H  0.53626254  0.11788139  0.51143512     0.02400
H565        H  0.94831101  0.09558792  0.58846931     0.17000
H566        H  0.49686898  0.17839277  0.50833618     0.16800
C567        C  0.62776202  0.46909299  0.50995431     0.88600
C568        C  0.61060424  0.47202587  0.56044275    -0.51600
C569        C  0.60850358  0.99837332  0.55918737     0.11500
C570        C  0.62386941  0.01943108  0.50791265     0.22500
C571        C  0.61035095  0.47087178  0.95893025    -0.52400
C572        C  0.60822395  0.99717840  0.95802471     0.11600
C573        C  0.65942057  0.49963654  0.50913408    -0.51900
C574        C  0.65744960  0.02600205  0.50806824     0.12200
H575        H  0.60052889  0.45461926  0.59349335     0.16700
H576        H  0.62212492  0.04086282  0.50702571     0.02400
H577        H  0.60005893  0.45269171  0.92709696     0.17000
H578        H  0.68145964  0.00036692  0.50933763     0.16800
O579        O  0.98233130  0.45263642  0.68757581    -0.83200
O580        O  0.54445020  0.48407814  0.71458097    -0.80300
C581        C  0.55661320  0.50692898  0.68093616     1.00200
O582        O  0.55245635  0.02973972  0.68634531    -0.80300
O583        O  0.52279548  0.06162756  0.71360002    -0.83000
C584        C  0.99973832  0.05047107  0.68090052     1.04700
O585        O  0.97706577  0.02290900  0.68694866    -0.75700
O586        O  0.94495632  0.46034677  0.71491186    -0.75900
C587        C  0.95531233  0.44796740  0.68191396     1.04700
O588        O  0.96597046  0.44171000  0.80405539    -0.83200
O589        O  0.52787932  0.47820615  0.83080448    -0.80300
C590        C  0.55447742  0.50230752  0.83617268     1.00200
O591        O  0.56407359  0.02512654  0.80270960    -0.80300
O592        O  0.52937989  0.05167063  0.82997584    -0.82900
C593        C  0.00567123  0.05394482  0.83588890     1.04700
O594        O  0.98281606  0.04008566  0.80295545    -0.75800
O595        O  0.95580234  0.47779958  0.83090273    -0.75900
C596        C  0.95276604  0.45117641  0.83694179     1.04700
Cr597      Cr  0.00510963  0.46691560  0.75921424     1.93700
Cr598      Cr  0.53942553  0.03915221  0.75817519     1.93200
Cr599      Cr  0.96796952  0.50041836  0.75890546     1.39100
O600        O  0.00416310  0.50216222  0.75868786    -1.21000
C601        C  0.57601009  0.00691356  0.63684226    -0.11200
C602        C  0.59149266  0.00442529  0.60094100    -0.12700
C603        C  0.59071737  0.00196994  0.91562018    -0.11200
C604        C  0.57462546  0.00322395  0.87958530    -0.12700
C605        C  0.50459152  0.07308372  0.87978056    -0.11200
C606        C  0.50142531  0.08824150  0.91575278    -0.12700
C607        C  0.49884232  0.06991594  0.63750100    -0.11200
C608        C  0.49695074  0.08584151  0.60155041    -0.12700
C609        C  0.91535175  0.41443102  0.91666492    -0.11200
C610        C  0.93300186  0.43083294  0.88051429    -0.12900
C611        C  0.93546662  0.42785088  0.63815303    -0.11200
C612        C  0.91712274  0.41205107  0.60231344    -0.12700
C613        C  0.62157611  0.26576713  0.50978432    -0.16400
C614        C  0.60140833  0.23837343  0.51067022     0.07700
C615        C  0.57607670  0.20704452  0.51138599     0.09500
C616        C  0.55252283  0.18157769  0.51138431    -0.17300
C617        C  0.64718870  0.37413492  0.50844441    -0.16400
C618        C  0.64048619  0.39423774  0.50926964     0.07700
C619        C  0.63420872  0.41889400  0.51033228     0.09500
C620        C  0.63035162  0.44095212  0.51073356    -0.17300
C621        C  0.81402889  0.37194938  0.51298986    -0.16400
C622        C  0.78777740  0.36676351  0.51264925     0.07700
C623        C  0.75636549  0.35853115  0.51125858     0.09500
C624        C  0.72920496  0.35031387  0.50996805    -0.17300
C625        C  0.76875107  0.12616665  0.50519125    -0.16400
C626        C  0.74151311  0.10606671  0.50563982     0.07700
C627        C  0.71039985  0.08060097  0.50635528     0.09500
C628        C  0.68510620  0.05688372  0.50709566    -0.17300
C629        C  0.85527300  0.23383027  0.50424568    -0.16400
C630        C  0.86381162  0.26141754  0.50450605     0.07700
C631        C  0.87117999  0.29297949  0.50512530     0.09500
C632        C  0.87388745  0.31856416  0.50595668    -0.17300
C633        C  0.93805704  0.12723591  0.50459170    -0.16400
C634        C  0.91682014  0.13203245  0.50400047     0.07700
C635        C  0.89344370  0.13981813  0.50398894     0.09500
C636        C  0.87453189  0.14790195  0.50418896    -0.17300
C637        C  0.85305991  0.65886367  0.50439510     0.82300
N638        N  0.86392863  0.69018046  0.00416697    -0.76000
C639        C  0.84372260  0.70066581  0.00426117     0.84800
N640        N  0.81257855  0.67978849  0.00458706    -0.75900
C641        C  0.80168403  0.64843704  0.50481090     0.84900
N642        N  0.82195999  0.63800725  0.50473560    -0.77600
C643        C  0.65674729  0.85138426  0.00808535     0.82300
N644        N  0.63520332  0.82017687  0.00836871    -0.76000
C645        C  0.64442161  0.79879102  0.00886811     0.84800
N646        N  0.67518799  0.80865505  0.00918296    -0.75900
C647        C  0.69670659  0.83986290  0.00889136     0.84900
N648        N  0.68748408  0.86119557  0.00840739    -0.77600
C649        C  0.84482986  0.87534348  0.01155852     0.88600
C650        C  0.86522909  0.89234333  0.06235456    -0.51600
C651        C  0.89370587  0.89499769  0.06040478     0.11500
C652        C  0.89908204  0.88029193  0.00818785     0.22500
C653        C  0.86435701  0.89366791  0.46085334    -0.52400
C654        C  0.89281171  0.89633717  0.45922466     0.11600
C655        C  0.84302980  0.84367125  0.00921082    -0.51900
C656        C  0.87136680  0.84619877  0.00750676     0.12200
H657        H  0.85808990  0.90190682  0.09611928     0.16700
H658        H  0.92226352  0.88245277  0.00674447     0.02400
H659        H  0.85664336  0.90405594  0.42967078     0.17000
H660        H  0.82126946  0.82120056  0.00911955     0.16800
C661        C  0.96561727  0.62418368  0.00638330     0.88600
C662        C  0.96893849  0.60720058  0.45574633    -0.51600
C663        C  0.49488260  0.60486658  0.45779881     0.11500
C664        C  0.51514734  0.61980506  0.00994606     0.22500
C665        C  0.96662670  0.60606120  0.05726313    -0.52400
C666        C  0.49253594  0.60368264  0.05895316     0.11600
C667        C  0.99595238  0.65603081  0.00855823    -0.51900
C668        C  0.52188664  0.65379691  0.01037035     0.12200
H669        H  0.95213912  0.59750602  0.42191875     0.16700
H670        H  0.53626256  0.61788139  0.01143445     0.02400
H671        H  0.94831103  0.59558793  0.08846926     0.17000
H672        H  0.49686897  0.67839276  0.00833616     0.16800
C673        C  0.62776199  0.96909300  0.00995471     0.88600
C674        C  0.61060417  0.97202586  0.06044299    -0.51600
C675        C  0.60850348  0.49837327  0.05918753     0.11500
C676        C  0.62386944  0.51943107  0.00791283     0.22500
C677        C  0.61035095  0.97087177  0.45892998    -0.52400
C678        C  0.60822388  0.49717829  0.45802457     0.11600
C679        C  0.65942055  0.99963654  0.00913415    -0.51900
C680        C  0.65744961  0.52600204  0.00806851     0.12200
H681        H  0.60052924  0.95461936  0.09349430     0.16700
H682        H  0.62212507  0.54086287  0.00702590     0.02400
H683        H  0.60005892  0.95269172  0.42709659     0.17000
H684        H  0.68145973  0.50036706  0.00933875     0.16800
O685        O  0.98233132  0.95263641  0.18757582    -0.83200
O686        O  0.54445028  0.98407817  0.21458094    -0.80300
C687        C  0.55661306  0.00692893  0.18093593     1.00200
O688        O  0.55245637  0.52973972  0.18634531    -0.80300
O689        O  0.52279553  0.56162756  0.21360001    -0.83000
C690        C  0.99973825  0.55047109  0.18090058     1.04700
O691        O  0.97706574  0.52290903  0.18694875    -0.75700
O692        O  0.94495634  0.96034675  0.21491183    -0.75900
C693        C  0.95531236  0.94796740  0.18191394     1.04700
O694        O  0.96597052  0.94171002  0.30405537    -0.83200
O695        O  0.52787940  0.97820619  0.33080440    -0.80300
C696        C  0.55447746  0.00230761  0.33617257     1.00200
O697        O  0.56407349  0.52512648  0.30270954    -0.80300
O698        O  0.52937991  0.55167065  0.32997578    -0.82900
C699        C  0.00567120  0.55394480  0.33588902     1.04700
O700        O  0.98281602  0.54008561  0.30295552    -0.75800
O701        O  0.95580231  0.97779954  0.33090275    -0.75900
C702        C  0.95276609  0.95117641  0.33694183     1.04700
Cr703      Cr  0.00510968  0.96691559  0.25921426     1.93700
Cr704      Cr  0.53942551  0.53915218  0.25817519     1.93200
Cr705      Cr  0.96796948  0.00041829  0.25890545     1.39100
O706        O  0.00416309  0.00216217  0.25868789    -1.21000
C707        C  0.57601014  0.50691356  0.13684237    -0.11200
C708        C  0.59149274  0.50442547  0.10094105    -0.12700
C709        C  0.59071735  0.50196995  0.41562026    -0.11200
C710        C  0.57462548  0.50322390  0.37958526    -0.12700
C711        C  0.50459143  0.57308373  0.37978054    -0.11200
C712        C  0.50142531  0.58824157  0.41575273    -0.12700
C713        C  0.49884227  0.56991586  0.13750091    -0.11200
C714        C  0.49695075  0.58584152  0.10155039    -0.12700
C715        C  0.91535173  0.91443100  0.41666497    -0.11200
C716        C  0.93300185  0.93083295  0.38051435    -0.12900
C717        C  0.93546664  0.92785087  0.13815299    -0.11200
C718        C  0.91712276  0.91205106  0.10231339    -0.12700
C719        C  0.62157604  0.76576712  0.00978431    -0.16400
C720        C  0.60140830  0.73837339  0.01067018     0.07700
C721        C  0.57607670  0.70704453  0.01138596     0.09500
C722        C  0.55252286  0.68157770  0.01138427    -0.17300
C723        C  0.64718872  0.87413496  0.00844437    -0.16400
C724        C  0.64048620  0.89423777  0.00926978     0.07700
C725        C  0.63420873  0.91889402  0.01033250     0.09500
C726        C  0.63035161  0.94095212  0.01073385    -0.17300
C727        C  0.81402888  0.87194938  0.01298988    -0.16400
C728        C  0.78777739  0.86676350  0.01264921     0.07700
C729        C  0.75636547  0.85853112  0.01125853     0.09500
C730        C  0.72920495  0.85031385  0.00996827    -0.17300
C731        C  0.76875108  0.62616664  0.00519120    -0.16400
C732        C  0.74151312  0.60606670  0.00563978     0.07700
C733        C  0.71039986  0.58060096  0.00635547     0.09500
C734        C  0.68510623  0.55688368  0.00709570    -0.17300
C735        C  0.85527302  0.73383026  0.00424565    -0.16400
C736        C  0.86381163  0.76141753  0.00450603     0.07700
C737        C  0.87118001  0.79297948  0.00512527     0.09500
C738        C  0.87388746  0.81856415  0.00595666    -0.17300
C739        C  0.93805703  0.62723590  0.00459172    -0.16400
C740        C  0.91682008  0.63203235  0.00400044     0.07700
C741        C  0.89344369  0.63981811  0.00398891     0.09500
C742        C  0.87453184  0.64790186  0.00418893    -0.17300
C743        C  0.85305989  0.65886361  0.00439507     0.82300
N744        N  0.86392869  0.69018054  0.50416700    -0.76000
C745        C  0.84372257  0.70066582  0.50426120     0.84800
N746        N  0.81257845  0.67978849  0.50458709    -0.75900
C747        C  0.80168410  0.64843701  0.00481087     0.84900
N748        N  0.82196000  0.63800718  0.00473557    -0.77600
C749        C  0.65674724  0.85138426  0.50808521     0.82300
N750        N  0.63520330  0.82017687  0.50836882    -0.76000
C751        C  0.64442161  0.79879104  0.50886795     0.84800
N752        N  0.67518798  0.80865508  0.50918275    -0.75900
C753        C  0.69670660  0.83986298  0.50889103     0.84900
N754        N  0.68748405  0.86119561  0.50840719    -0.77600
C755        C  0.84482980  0.87534348  0.51155835     0.88600
C756        C  0.86522907  0.89234330  0.56235437    -0.51600
C757        C  0.89370579  0.89499758  0.56040476     0.11500
C758        C  0.89908189  0.88029181  0.50818782     0.22500
C759        C  0.86435718  0.89366792  0.96085342    -0.52400
C760        C  0.89281191  0.89633722  0.95922476     0.11600
C761        C  0.84302985  0.84367128  0.50921084    -0.51900
C762        C  0.87136677  0.84619875  0.50750680     0.12200
H763        H  0.85808977  0.90190642  0.59611934     0.16700
H764        H  0.92226326  0.88245252  0.50674446     0.02400
H765        H  0.85664375  0.90405600  0.92967122     0.17000
H766        H  0.82126951  0.82120058  0.50911963     0.16800
C767        C  0.96561733  0.62418372  0.50638326     0.88600
C768        C  0.96893843  0.60720054  0.95574641    -0.51600
C769        C  0.49488256  0.60486648  0.95779893     0.11500
C770        C  0.51514733  0.61980506  0.50994608     0.22500
C771        C  0.96662673  0.60606113  0.55726303    -0.52400
C772        C  0.49253590  0.60368265  0.55895319     0.11600
C773        C  0.99595234  0.65603086  0.50855835    -0.51900
C774        C  0.52188652  0.65379684  0.51037039     0.12200
H775        H  0.95213908  0.59750601  0.92191878     0.16700
H776        H  0.53626259  0.61788171  0.51143498     0.02400
H777        H  0.94831097  0.59558778  0.58846905     0.17000
H778        H  0.49686900  0.67839262  0.50833621     0.16800
C779        C  0.62776202  0.96909307  0.50995428     0.88600
C780        C  0.61060430  0.97202591  0.56044267    -0.51600
C781        C  0.60850346  0.49837315  0.55918731     0.11500
C782        C  0.62386940  0.51943089  0.50791263     0.22500
C783        C  0.61035092  0.97087175  0.95893035    -0.52400
C784        C  0.60822396  0.49717843  0.95802477     0.11600
C785        C  0.65942048  0.99963666  0.50913400    -0.51900
C786        C  0.65744967  0.52600186  0.50806829     0.12200
H787        H  0.60052935  0.95461943  0.59349340     0.16700
H788        H  0.62212508  0.54086245  0.50702579     0.02400
H789        H  0.60005913  0.95269178  0.92709698     0.17000
H790        H  0.68145980  0.50036676  0.50933769     0.16800
O791        O  0.98233138  0.95263638  0.68757579    -0.83200
O792        O  0.54445009  0.98407805  0.71458102    -0.80300
C793        C  0.55661306  0.00692892  0.68093611     1.00200
O794        O  0.55245640  0.52973970  0.68634536    -0.80300
O795        O  0.52279556  0.56162754  0.71359998    -0.83000
C796        C  0.99973826  0.55047103  0.68090049     1.04700
O797        O  0.97706569  0.52290900  0.68694873    -0.75700
O798        O  0.94495639  0.96034672  0.71491178    -0.75900
C799        C  0.95531242  0.94796737  0.68191389     1.04700
O800        O  0.96597049  0.94170989  0.80405538    -0.83200
O801        O  0.52787943  0.97820627  0.83080452    -0.80300
C802        C  0.55447754  0.00230763  0.83617256     1.00200
O803        O  0.56407356  0.52512642  0.80270969    -0.80300
O804        O  0.52937992  0.55167065  0.82997588    -0.82900
C805        C  0.00567122  0.55394489  0.83588896     1.04700
O806        O  0.98281608  0.54008578  0.80295552    -0.75800
O807        O  0.95580240  0.97779947  0.83090277    -0.75900
C808        C  0.95276606  0.95117627  0.83694176     1.04700
Cr809      Cr  0.00510969  0.96691554  0.75921428     1.93700
Cr810      Cr  0.53942567  0.53915226  0.75817526     1.93200
Cr811      Cr  0.96796962  0.00041832  0.75890540     1.39100
O812        O  0.00416323  0.00216220  0.75868784    -1.21000
C813        C  0.57601014  0.50691352  0.63684230    -0.11200
C814        C  0.59149276  0.50442539  0.60094103    -0.12700
C815        C  0.59071733  0.50196995  0.91562032    -0.11200
C816        C  0.57462538  0.50322388  0.87958542    -0.12700
C817        C  0.50459145  0.57308366  0.87978054    -0.11200
C818        C  0.50142533  0.58824153  0.91575267    -0.12700
C819        C  0.49884231  0.56991588  0.63750084    -0.11200
C820        C  0.49695076  0.58584149  0.60155026    -0.12700
C821        C  0.91535179  0.91443100  0.91666486    -0.11200
C822        C  0.93300193  0.93083288  0.88051429    -0.12900
C823        C  0.93546668  0.92785088  0.63815292    -0.11200
C824        C  0.91712268  0.91205117  0.60231339    -0.12700
C825        C  0.62157611  0.76576713  0.50978432    -0.16400
C826        C  0.60140832  0.73837344  0.51067022     0.07700
C827        C  0.57607670  0.70704454  0.51138599     0.09500
C828        C  0.55252273  0.68157777  0.51138432    -0.17300
C829        C  0.64718854  0.87413488  0.50844441    -0.16400
C830        C  0.64048614  0.89423778  0.50926965     0.07700
C831        C  0.63420868  0.91889403  0.51033228     0.09500
C832        C  0.63035171  0.94095223  0.51073353    -0.17300
C833        C  0.81402879  0.87194930  0.51298989    -0.16400
C834        C  0.78777735  0.86676352  0.51264925     0.07700
C835        C  0.75636548  0.85853111  0.51125858     0.09500
C836        C  0.72920503  0.85031408  0.50996805    -0.17300
C837        C  0.76875103  0.62616681  0.50519125    -0.16400
C838        C  0.74151312  0.60606678  0.50563981     0.07700
C839        C  0.71039985  0.58060101  0.50635528     0.09500
C840        C  0.68510619  0.55688371  0.50709567    -0.17300
C841        C  0.85527307  0.73383030  0.50424567    -0.16400
C842        C  0.86381176  0.76141761  0.50450605     0.07700
C843        C  0.87117997  0.79297951  0.50512530     0.09500
C844        C  0.87388747  0.81856420  0.50595670    -0.17300
C845        C  0.93805701  0.62723588  0.50459171    -0.16400
C846        C  0.91682008  0.63203238  0.50400047     0.07700
C847        C  0.89344378  0.63981826  0.50398894     0.09500
C848        C  0.87453180  0.64790183  0.50418896    -0.17300
loop_ 
_geom_bond_atom_site_label_1 
_geom_bond_atom_site_label_2 
_geom_bond_distance 
_geom_bond_site_symmetry_2 
_ccdc_geom_bond_type 
C1            N6   1.357       .  A
C1          N108   1.357       .  A
C1          C212   1.435       .  S
N2            C3   1.356       .  A
N2          C107   1.357       .  A
C3            N4   1.359       .  A
C3           C99   1.436       .  S
N4          C111   1.358       .  A
C5            N6   1.358       .  A
C5          N110   1.358       .  A
C5          C201   1.439       .  S
C7            N8   1.358       .  A
C7           N12   1.356       .  A
C7           C87   1.436       .  S
N8            C9   1.358       .  A
C9           N10   1.357       .  A
C9           C83   1.437       .  S
N10          C11   1.357       .  A
C11          N12   1.356       .  A
C11          C94   1.433       .  S
C13          C14   1.533       .  S
C13          C19   1.528       .  S
C13         C123   1.532   1_554  S
C13          C91   1.465       .  S
C14          H21   1.087       .  S
C14          C15   1.365       .  D
C15          C16   1.539       .  S
C15          C82   1.442       .  S
C16          C20   1.541       .  S
C16         C124   1.540   1_554  S
C16          H22   1.111       .  S
C17         C119   1.532       .  S
C17          H23   1.087       .  S
C17          C18   1.364       .  D
C18         C122   1.540       .  S
C18          C79   1.442       .  S
C19          H24   1.087       .  S
C19          C20   1.361       .  D
C20         C102   1.441       .  S
C25          C31   1.529       .  S
C25          C29   1.533       .  S
C25         C132   1.533   1_554  S
C25         C103   1.466       .  S
C26         C131   1.533       .  S
C26          H33   1.087       .  S
C26         C451   1.365       .  D
C27         C134   1.539   1_655  S
C27         C450   1.365       .  D
C27          C76   1.442   1_655  S
C28          C32   1.541       .  S
C28          C30   1.540   1_455  S
C28         C133   1.539   1_454  S
C28          H34   1.111       .  S
C29          H35   1.087       .  S
C29         C454   1.364       .  D
C30         C453   1.364       .  D
C30          C78   1.442       .  S
C31         H460   1.087       .  S
C31         C456   1.361       .  D
C32         C455   1.361   1_455  D
C32          C86   1.442       .  S
H36         C455   1.087       .  S
C37          C38   1.533       .  S
C37          C43   1.530       .  S
C37         C147   1.532   1_554  S
C37          C90   1.468       .  S
C38          H45   1.087       .  S
C38         C251   1.365       .  D
C39          C40   1.539   1_565  S
C39         C250   1.365       .  D
C39          C72   1.442   1_565  S
C40          C44   1.541       .  S
C40         C148   1.539   1_544  S
C40          H46   1.111       .  S
C41         C143   1.532       .  S
C41          H47   1.087       .  S
C41         C254   1.364       .  D
C42         C146   1.539   1_565  S
C42         C253   1.364       .  D
C42          C73   1.441   1_565  S
C43         H260   1.087       .  S
C43         C256   1.362       .  D
C44         C255   1.362   1_545  D
C44          C98   1.444       .  S
H48         C255   1.087   1_545  S
O49         Cr67   1.980       .  S
O49          C57   1.259       .  A
O50        Cr491   2.007       .  S
O50          C51   1.264       .  A
C51         C283   1.435       .  S
C51         O264   1.259       .  A
O52         Cr68   1.979       .  S
O52         C263   1.259       .  A
O53         Cr68   2.011       .  S
O53         C478   1.264   1_455  A
C54         C501   1.436       .  S
C54          O55   1.259       .  A
C54         O477   1.264       .  A
O55        Cr281   1.977       .  S
O56         Cr69   2.008       .  S
O56          C57   1.264       .  A
C57          C81   1.436       .  S
O58         Cr67   2.011       .  S
O58          C66   1.264       .  A
O59        Cr491   1.975       .  S
O59          C60   1.258       .  A
C60         C286   1.435       .  S
C60         O273   1.264       .  A
O61         Cr68   2.010       .  S
O61         C272   1.264       .  A
O62         Cr68   1.979       .  S
O62         C487   1.258       .  A
C63         C499   1.435       .  S
C63          O64   1.264       .  A
C63         O486   1.258       .  A
O64        Cr281   2.007       .  S
O65         Cr69   1.977       .  S
O65          C66   1.258       .  A
C66          C80   1.436       .  S
Cr67        O474   2.007       .  S
Cr67        O483   1.975       .  S
Cr67         O70   1.774       .  S
Cr68        O706   1.776       .  S
Cr69        O267   1.977       .  S
Cr69        O276   2.007       .  S
Cr69         O70   1.772       .  S
O70        Cr704   1.776       .  S
C71         C263   1.435       .  S
C71          C72   1.206       .  T
C73          C74   1.206       .  T
C74         C272   1.435       .  S
C75         C487   1.435       .  S
C75          C76   1.206       .  T
C77         C478   1.436       .  S
C77          C78   1.206       .  T
C79          C80   1.206       .  T
C81          C82   1.206       .  T
C83          C84   1.207       .  T
C84          C85   1.414       .  S
C85          C86   1.206       .  T
C87          C88   1.206       .  T
C88          C89   1.412       .  S
C89          C90   1.206       .  T
C91          C92   1.204       .  T
C92          C93   1.409       .  S
C93          C94   1.204       .  T
C95         C111   1.439       .  S
C95          C96   1.207       .  T
C96          C97   1.415       .  S
C97          C98   1.207       .  T
C99         C100   1.206       .  T
C100        C101   1.412       .  S
C101        C102   1.206       .  T
C103        C104   1.205       .  T
C104        C105   1.410       .  S
C105        C106   1.205       .  T
C106        C107   1.435       .  S
C107        N112   1.357       .  A
N108        C109   1.356       .  A
C109        N110   1.359       .  A
C109        C205   1.436       .  S
C111        N112   1.358       .  A
C113        N114   1.358       .  A
C113        N118   1.356       .  A
C113        C193   1.436       .  S
N114        C115   1.358       .  A
C115        N116   1.357       .  A
C115        C189   1.437       .  S
N116        C117   1.357       .  A
C117        N118   1.356       .  A
C117        C200   1.433       .  S
C119        C120   1.533       .  S
C119        C125   1.528       .  S
C119        C197   1.465       .  S
C120        H127   1.087       .  S
C120        C121   1.365       .  D
C121        C122   1.539       .  S
C121        C188   1.442       .  S
C122        C126   1.541       .  S
C122        H128   1.111       .  S
C123        H129   1.087       .  S
C123        C124   1.364       .  D
C124        C185   1.442       .  S
C125        H130   1.087       .  S
C125        C126   1.361       .  D
C126        C208   1.441       .  S
C131        C137   1.529       .  S
C131        C135   1.533       .  S
C131        C209   1.466       .  S
C132        H139   1.087       .  S
C132        C557   1.365       .  D
C133        C556   1.365       .  D
C133        C182   1.442   1_655  S
C134        C138   1.541       .  S
C134        C136   1.540   1_455  S
C134        H140   1.111       .  S
C135        H141   1.087       .  S
C135        C560   1.364       .  D
C136        C559   1.364       .  D
C136        C184   1.442       .  S
C137        H566   1.087       .  S
C137        C562   1.361       .  D
C138        C561   1.361   1_455  D
C138        C192   1.442       .  S
H142        C561   1.087       .  S
C143        C144   1.533       .  S
C143        C149   1.530       .  S
C143        C196   1.468       .  S
C144        H151   1.087       .  S
C144        C357   1.365       .  D
C145        C146   1.539   1_565  S
C145        C356   1.365       .  D
C145        C178   1.442   1_565  S
C146        C150   1.541       .  S
C146        H152   1.111       .  S
C147        H153   1.087       .  S
C147        C360   1.364       .  D
C148        C359   1.364       .  D
C148        C179   1.441   1_565  S
C149        H366   1.087       .  S
C149        C362   1.362       .  D
C150        C361   1.362   1_545  D
C150        C204   1.444       .  S
H154        C361   1.087   1_545  S
O155       Cr173   1.980       .  S
O155        C163   1.259       .  A
O156       Cr597   2.007       .  S
O156        C157   1.264       .  A
C157        C389   1.435       .  S
C157        O370   1.259       .  A
O158       Cr174   1.979       .  S
O158        C369   1.259       .  A
O159       Cr174   2.011       .  S
O159        C584   1.264   1_455  A
C160        C607   1.436       .  S
C160        O583   1.264       .  A
C160        O161   1.259       .  A
O161       Cr387   1.977       .  S
O162       Cr175   2.008       .  S
O162        C163   1.264       .  A
C163        C187   1.436       .  S
O164       Cr173   2.011       .  S
O164        C172   1.264       .  A
O165       Cr597   1.975       .  S
O165        C166   1.258       .  A
C166        C392   1.435       .  S
C166        O379   1.264       .  A
O167       Cr174   2.010       .  S
O167        C378   1.264       .  A
O168       Cr174   1.979       .  S
O168        C593   1.258       .  A
C169        C605   1.435       .  S
C169        O592   1.258       .  A
C169        O170   1.264       .  A
O170       Cr387   2.007       .  S
O171       Cr175   1.977       .  S
O171        C172   1.258       .  A
C172        C186   1.436       .  S
Cr173       O580   2.007       .  S
Cr173       O589   1.975       .  S
Cr173       O176   1.774       .  S
Cr174       O812   1.776       .  S
Cr175       O373   1.977       .  S
Cr175       O382   2.007       .  S
Cr175       O176   1.772       .  S
O176       Cr810   1.776       .  S
C177        C369   1.435       .  S
C177        C178   1.206       .  T
C179        C180   1.206       .  T
C180        C378   1.435       .  S
C181        C593   1.435       .  S
C181        C182   1.206       .  T
C183        C584   1.436       .  S
C183        C184   1.206       .  T
C185        C186   1.206       .  T
C187        C188   1.206       .  T
C189        C190   1.207       .  T
C190        C191   1.414       .  S
C191        C192   1.206       .  T
C193        C194   1.206       .  T
C194        C195   1.412       .  S
C195        C196   1.206       .  T
C197        C198   1.204       .  T
C198        C199   1.409       .  S
C199        C200   1.204       .  T
C201        C202   1.207       .  T
C202        C203   1.415       .  S
C203        C204   1.207       .  T
C205        C206   1.206       .  T
C206        C207   1.412       .  S
C207        C208   1.206       .  T
C209        C210   1.205       .  T
C210        C211   1.410       .  S
C211        C212   1.205       .  T
C213        N320   1.357       .  A
C213        N218   1.357       .  A
C213        C424   1.435       .  S
N214        C319   1.357       .  A
N214        C215   1.356       .  A
C215        N216   1.359       .  A
C215        C311   1.436       .  S
N216        C323   1.358       .  A
C217        N322   1.358       .  A
C217        N218   1.358       .  A
C217        C413   1.439       .  S
C219        N220   1.358       .  A
C219        N224   1.356       .  A
C219        C299   1.436       .  S
N220        C221   1.358       .  A
C221        N222   1.357       .  A
C221        C295   1.437       .  S
N222        C223   1.357       .  A
C223        N224   1.356       .  A
C223        C306   1.433       .  S
C225        C226   1.533       .  S
C225        C231   1.528       .  S
C225        C335   1.532   1_554  S
C225        C303   1.465       .  S
C226        H233   1.087       .  S
C226        C227   1.365       .  D
C227        C228   1.539       .  S
C227        C294   1.442       .  S
C228        C232   1.541       .  S
C228        C336   1.540   1_554  S
C228        H234   1.111       .  S
C229        C331   1.532       .  S
C229        H235   1.087       .  S
C229        C230   1.364       .  D
C230        C334   1.540       .  S
C230        C291   1.442       .  S
C231        H236   1.087       .  S
C231        C232   1.361       .  D
C232        C314   1.441       .  S
C237        C344   1.533   1_554  S
C237        C243   1.529       .  S
C237        C241   1.533       .  S
C237        C315   1.466       .  S
C238        C343   1.533       .  S
C238        H245   1.087       .  S
C238        C663   1.365       .  D
C239        C346   1.539   1_655  S
C239        C662   1.365       .  D
C239        C288   1.442   1_655  S
C240        C345   1.539   1_454  S
C240        C244   1.541       .  S
C240        C242   1.540   1_455  S
C240        H246   1.111       .  S
C241        H247   1.087       .  S
C241        C666   1.364       .  D
C242        C665   1.364       .  D
C242        C290   1.442       .  S
C243        H672   1.087       .  S
C243        C668   1.361       .  D
C244        C667   1.361   1_455  D
C244        C298   1.442       .  S
H248        C667   1.087       .  S
C249        C250   1.533       .  S
C249        C255   1.530       .  S
C249        C359   1.532   1_554  S
C249        C302   1.468       .  S
C250        H257   1.087       .  S
C251        C252   1.539       .  S
C251        C284   1.442       .  S
C252        C256   1.541       .  S
C252        C360   1.539   1_554  S
C252        H258   1.111       .  S
C253        C355   1.532       .  S
C253        H259   1.087       .  S
C254        C358   1.539       .  S
C254        C285   1.441       .  S
C256        C310   1.444       .  S
O261       Cr279   1.980       .  S
O261        C269   1.259       .  A
O262       Cr703   2.007       .  S
O262        C263   1.264   1_565  A
O264       Cr280   1.979       .  S
O265       Cr280   2.011       .  S
O265        C690   1.264   1_455  A
C266        C713   1.436       .  S
C266        O689   1.264       .  A
C266        O267   1.259       .  A
O268       Cr281   2.008   1_565  S
O268        C269   1.264       .  A
C269        C293   1.436       .  S
O270       Cr279   2.011       .  S
O270        C278   1.264       .  A
O271       Cr703   1.975       .  S
O271        C272   1.258   1_565  A
O273       Cr280   2.010       .  S
O274       Cr280   1.979       .  S
O274        C699   1.258       .  A
C275        C711   1.435       .  S
C275        O698   1.258       .  A
C275        O276   1.264       .  A
O277       Cr281   1.977   1_565  S
O277        C278   1.258       .  A
C278        C292   1.436       .  S
Cr279       O686   2.007       .  S
Cr279       O695   1.975       .  S
Cr279       O282   1.774   1_565  S
Cr280       O494   1.776       .  S
Cr281       O282   1.772       .  S
O282       Cr492   1.776       .  S
C283        C284   1.206       .  T
C285        C286   1.206       .  T
C287        C699   1.435       .  S
C287        C288   1.206       .  T
C289        C690   1.436       .  S
C289        C290   1.206       .  T
C291        C292   1.206       .  T
C293        C294   1.206       .  T
C295        C296   1.207       .  T
C296        C297   1.414       .  S
C297        C298   1.206       .  T
C299        C300   1.206       .  T
C300        C301   1.412       .  S
C301        C302   1.206       .  T
C303        C304   1.204       .  T
C304        C305   1.409       .  S
C305        C306   1.204       .  T
C307        C323   1.439       .  S
C307        C308   1.207       .  T
C308        C309   1.415       .  S
C309        C310   1.207       .  T
C311        C312   1.206       .  T
C312        C313   1.412       .  S
C313        C314   1.206       .  T
C315        C316   1.205       .  T
C316        C317   1.410       .  S
C317        C318   1.205       .  T
C318        C319   1.435       .  S
C319        N324   1.357       .  A
N320        C321   1.356       .  A
C321        N322   1.359       .  A
C321        C417   1.436       .  S
C323        N324   1.358       .  A
C325        N326   1.358       .  A
C325        N330   1.356       .  A
C325        C405   1.436       .  S
N326        C327   1.358       .  A
C327        N328   1.357       .  A
C327        C401   1.437       .  S
N328        C329   1.357       .  A
C329        N330   1.356       .  A
C329        C412   1.433       .  S
C331        C332   1.533       .  S
C331        C337   1.528       .  S
C331        C409   1.465       .  S
C332        H339   1.087       .  S
C332        C333   1.365       .  D
C333        C334   1.539       .  S
C333        C400   1.442       .  S
C334        C338   1.541       .  S
C334        H340   1.111       .  S
C335        H341   1.087       .  S
C335        C336   1.364       .  D
C336        C397   1.442       .  S
C337        H342   1.087       .  S
C337        C338   1.361       .  D
C338        C420   1.441       .  S
C343        C349   1.529       .  S
C343        C347   1.533       .  S
C343        C421   1.466       .  S
C344        H351   1.087       .  S
C344        C769   1.365       .  D
C345        C768   1.365       .  D
C345        C394   1.442   1_655  S
C346        C350   1.541       .  S
C346        C348   1.540   1_455  S
C346        H352   1.111       .  S
C347        H353   1.087       .  S
C347        C772   1.364       .  D
C348        C771   1.364       .  D
C348        C396   1.442       .  S
C349        H778   1.087       .  S
C349        C774   1.361       .  D
C350        C773   1.361   1_455  D
C350        C404   1.442       .  S
H354        C773   1.087       .  S
C355        C356   1.533       .  S
C355        C361   1.530       .  S
C355        C408   1.468       .  S
C356        H363   1.087       .  S
C357        C358   1.539       .  S
C357        C390   1.442       .  S
C358        C362   1.541       .  S
C358        H364   1.111       .  S
C359        H365   1.087       .  S
C360        C391   1.441       .  S
C362        C416   1.444       .  S
O367       Cr385   1.980       .  S
O367        C375   1.259       .  A
O368       Cr809   2.007       .  S
O368        C369   1.264   1_565  A
O370       Cr386   1.979       .  S
O371       Cr386   2.011       .  S
O371        C796   1.264   1_455  A
C372        C819   1.436       .  S
C372        O795   1.264       .  A
C372        O373   1.259       .  A
O374       Cr387   2.008   1_565  S
O374        C375   1.264       .  A
C375        C399   1.436       .  S
O376       Cr385   2.011       .  S
O376        C384   1.264       .  A
O377       Cr809   1.975       .  S
O377        C378   1.258   1_565  A
O379       Cr386   2.010       .  S
O380       Cr386   1.979       .  S
O380        C805   1.258       .  A
C381        C817   1.435       .  S
C381        O804   1.258       .  A
C381        O382   1.264       .  A
O383       Cr387   1.977   1_565  S
O383        C384   1.258       .  A
C384        C398   1.436       .  S
Cr385       O792   2.007       .  S
Cr385       O801   1.975       .  S
Cr385       O388   1.774   1_565  S
Cr386       O600   1.776       .  S
Cr387       O388   1.772       .  S
O388       Cr598   1.776       .  S
C389        C390   1.206       .  T
C391        C392   1.206       .  T
C393        C805   1.435       .  S
C393        C394   1.206       .  T
C395        C796   1.436       .  S
C395        C396   1.206       .  T
C397        C398   1.206       .  T
C399        C400   1.206       .  T
C401        C402   1.207       .  T
C402        C403   1.414       .  S
C403        C404   1.206       .  T
C405        C406   1.206       .  T
C406        C407   1.412       .  S
C407        C408   1.206       .  T
C409        C410   1.204       .  T
C410        C411   1.409       .  S
C411        C412   1.204       .  T
C413        C414   1.207       .  T
C414        C415   1.415       .  S
C415        C416   1.207       .  T
C417        C418   1.206       .  T
C418        C419   1.412       .  S
C419        C420   1.206       .  T
C421        C422   1.205       .  T
C422        C423   1.410       .  S
C423        C424   1.205       .  T
C425        N532   1.357       .  A
C425        N430   1.357       .  A
C425        C636   1.435       .  S
N426        C531   1.357       .  A
N426        C427   1.356       .  A
C427        N428   1.359       .  A
C427        C523   1.436       .  S
N428        C535   1.358       .  A
C429        N534   1.358       .  A
C429        N430   1.358       .  A
C429        C625   1.439       .  S
C431        N432   1.358       .  A
C431        N436   1.356       .  A
C431        C511   1.436       .  S
N432        C433   1.358       .  A
C433        N434   1.357       .  A
C433        C507   1.437       .  S
N434        C435   1.357       .  A
C435        N436   1.356       .  A
C435        C518   1.433       .  S
C437        C438   1.533       .  S
C437        C443   1.528       .  S
C437        C547   1.532   1_554  S
C437        C515   1.465       .  S
C438        H445   1.087       .  S
C438        C439   1.365       .  D
C439        C440   1.539       .  S
C439        C506   1.442       .  S
C440        C444   1.541       .  S
C440        C548   1.540   1_554  S
C440        H446   1.111       .  S
C441        C543   1.532       .  S
C441        H447   1.087       .  S
C441        C442   1.364       .  D
C442        C546   1.540       .  S
C442        C503   1.442       .  S
C443        H448   1.087       .  S
C443        C444   1.361       .  D
C444        C526   1.441       .  S
C449        C556   1.533   1_554  S
C449        C455   1.529       .  S
C449        C453   1.533       .  S
C449        C527   1.466       .  S
C450        C555   1.533       .  S
C450        H457   1.087       .  S
C451        C558   1.539       .  S
C451        C500   1.442       .  S
C452        C557   1.539   1_554  S
C452        C456   1.541       .  S
C452        C454   1.540       .  S
C452        H458   1.111       .  S
C453        H459   1.087       .  S
C454        C502   1.442       .  S
C456        C510   1.442       .  S
C461        C462   1.533       .  S
C461        C467   1.530       .  S
C461        C571   1.532   1_554  S
C461        C514   1.468       .  S
C462        H469   1.087       .  S
C462        C675   1.365       .  D
C463        C464   1.539   1_565  S
C463        C674   1.365       .  D
C463        C496   1.442   1_565  S
C464        C468   1.541       .  S
C464        C572   1.539   1_544  S
C464        H470   1.111       .  S
C465        C567   1.532       .  S
C465        H471   1.087       .  S
C465        C678   1.364       .  D
C466        C570   1.539   1_565  S
C466        C677   1.364       .  D
C466        C497   1.441   1_565  S
C467        H684   1.087       .  S
C467        C680   1.362       .  D
C468        C679   1.362   1_545  D
C468        C522   1.444       .  S
H472        C679   1.087   1_545  S
O473       Cr491   1.980   1_655  S
O473        C481   1.259       .  A
O474        C475   1.264       .  A
C475        C707   1.435       .  S
C475        O688   1.259       .  A
O476       Cr492   1.979       .  S
O476        C687   1.259       .  A
O477       Cr492   2.011       .  S
C478        O479   1.259       .  A
O479       Cr705   1.977       .  S
O480       Cr493   2.008       .  S
O480        C481   1.264       .  A
C481        C505   1.436       .  S
O482       Cr491   2.011   1_655  S
O482        C490   1.264       .  A
O483        C484   1.258       .  A
C484        C710   1.435       .  S
C484        O697   1.264       .  A
O485       Cr492   2.010       .  S
O485        C696   1.264       .  A
O486       Cr492   1.979       .  S
C487        O488   1.264   1_455  A
O488       Cr705   2.007       .  S
O489       Cr493   1.977       .  S
O489        C490   1.258       .  A
C490        C504   1.436       .  S
Cr491       O494   1.774       .  S
Cr493       O691   1.977       .  S
Cr493       O700   2.007       .  S
Cr493       O494   1.772   1_655  S
C495        C687   1.435       .  S
C495        C496   1.206       .  T
C497        C498   1.206       .  T
C498        C696   1.435       .  S
C499        C500   1.206       .  T
C501        C502   1.206       .  T
C503        C504   1.206       .  T
C505        C506   1.206       .  T
C507        C508   1.207       .  T
C508        C509   1.414       .  S
C509        C510   1.206       .  T
C511        C512   1.206       .  T
C512        C513   1.412       .  S
C513        C514   1.206       .  T
C515        C516   1.204       .  T
C516        C517   1.409       .  S
C517        C518   1.204       .  T
C519        C535   1.439       .  S
C519        C520   1.207       .  T
C520        C521   1.415       .  S
C521        C522   1.207       .  T
C523        C524   1.206       .  T
C524        C525   1.412       .  S
C525        C526   1.206       .  T
C527        C528   1.205       .  T
C528        C529   1.410       .  S
C529        C530   1.205       .  T
C530        C531   1.435       .  S
C531        N536   1.357       .  A
N532        C533   1.356       .  A
C533        N534   1.359       .  A
C533        C629   1.436       .  S
C535        N536   1.358       .  A
C537        N538   1.358       .  A
C537        N542   1.356       .  A
C537        C617   1.436       .  S
N538        C539   1.358       .  A
C539        N540   1.357       .  A
C539        C613   1.437       .  S
N540        C541   1.357       .  A
C541        N542   1.356       .  A
C541        C624   1.433       .  S
C543        C544   1.533       .  S
C543        C549   1.528       .  S
C543        C621   1.465       .  S
C544        H551   1.087       .  S
C544        C545   1.365       .  D
C545        C546   1.539       .  S
C545        C612   1.442       .  S
C546        C550   1.541       .  S
C546        H552   1.111       .  S
C547        H553   1.087       .  S
C547        C548   1.364       .  D
C548        C609   1.442       .  S
C549        H554   1.087       .  S
C549        C550   1.361       .  D
C550        C632   1.441       .  S
C555        C561   1.529       .  S
C555        C559   1.533       .  S
C555        C633   1.466       .  S
C556        H563   1.087       .  S
C557        C606   1.442       .  S
C558        C562   1.541       .  S
C558        C560   1.540       .  S
C558        H564   1.111       .  S
C559        H565   1.087       .  S
C560        C608   1.442       .  S
C562        C616   1.442       .  S
C567        C568   1.533       .  S
C567        C573   1.530       .  S
C567        C620   1.468       .  S
C568        H575   1.087       .  S
C568        C781   1.365       .  D
C569        C570   1.539   1_565  S
C569        C780   1.365       .  D
C569        C602   1.442   1_565  S
C570        C574   1.541       .  S
C570        H576   1.111       .  S
C571        H577   1.087       .  S
C571        C784   1.364       .  D
C572        C783   1.364       .  D
C572        C603   1.441   1_565  S
C573        H790   1.087       .  S
C573        C786   1.362       .  D
C574        C785   1.362   1_545  D
C574        C628   1.444       .  S
H578        C785   1.087   1_545  S
O579       Cr597   1.980   1_655  S
O579        C587   1.259       .  A
O580        C581   1.264       .  A
C581        C813   1.435       .  S
C581        O794   1.259       .  A
O582       Cr598   1.979       .  S
O582        C793   1.259       .  A
O583       Cr598   2.011       .  S
C584        O585   1.259       .  A
O585       Cr811   1.977       .  S
O586       Cr599   2.008       .  S
O586        C587   1.264       .  A
C587        C611   1.436       .  S
O588       Cr597   2.011   1_655  S
O588        C596   1.264       .  A
O589        C590   1.258       .  A
C590        C816   1.435       .  S
C590        O803   1.264       .  A
O591       Cr598   2.010       .  S
O591        C802   1.264       .  A
O592       Cr598   1.979       .  S
C593        O594   1.264   1_455  A
O594       Cr811   2.007       .  S
O595       Cr599   1.977       .  S
O595        C596   1.258       .  A
C596        C610   1.436       .  S
Cr597       O600   1.774       .  S
Cr599       O797   1.977       .  S
Cr599       O806   2.007       .  S
Cr599       O600   1.772   1_655  S
C601        C793   1.435       .  S
C601        C602   1.206       .  T
C603        C604   1.206       .  T
C604        C802   1.435       .  S
C605        C606   1.206       .  T
C607        C608   1.206       .  T
C609        C610   1.206       .  T
C611        C612   1.206       .  T
C613        C614   1.207       .  T
C614        C615   1.414       .  S
C615        C616   1.206       .  T
C617        C618   1.206       .  T
C618        C619   1.412       .  S
C619        C620   1.206       .  T
C621        C622   1.204       .  T
C622        C623   1.409       .  S
C623        C624   1.204       .  T
C625        C626   1.207       .  T
C626        C627   1.415       .  S
C627        C628   1.207       .  T
C629        C630   1.206       .  T
C630        C631   1.412       .  S
C631        C632   1.206       .  T
C633        C634   1.205       .  T
C634        C635   1.410       .  S
C635        C636   1.205       .  T
C637        N744   1.357       .  A
C637        N642   1.357       .  A
C637        C848   1.435       .  S
N638        C743   1.357       .  A
N638        C639   1.356       .  A
C639        N640   1.359       .  A
C639        C735   1.436       .  S
N640        C747   1.358       .  A
C641        N746   1.358       .  A
C641        N642   1.358       .  A
C641        C837   1.439       .  S
C643        N644   1.358       .  A
C643        N648   1.356       .  A
C643        C723   1.436       .  S
N644        C645   1.358       .  A
C645        N646   1.357       .  A
C645        C719   1.437       .  S
N646        C647   1.357       .  A
C647        N648   1.356       .  A
C647        C730   1.433       .  S
C649        C650   1.533       .  S
C649        C655   1.528       .  S
C649        C759   1.532   1_554  S
C649        C727   1.465       .  S
C650        H657   1.087       .  S
C650        C651   1.365       .  D
C651        C652   1.539       .  S
C651        C718   1.442       .  S
C652        C656   1.541       .  S
C652        C760   1.540   1_554  S
C652        H658   1.111       .  S
C653        C755   1.532       .  S
C653        H659   1.087       .  S
C653        C654   1.364       .  D
C654        C758   1.540       .  S
C654        C715   1.442       .  S
C655        H660   1.087       .  S
C655        C656   1.361       .  D
C656        C738   1.441       .  S
C661        C768   1.533   1_554  S
C661        C667   1.529       .  S
C661        C665   1.533       .  S
C661        C739   1.466       .  S
C662        C767   1.533       .  S
C662        H669   1.087       .  S
C663        C770   1.539       .  S
C663        C712   1.442       .  S
C664        C769   1.539   1_554  S
C664        C668   1.541       .  S
C664        C666   1.540       .  S
C664        H670   1.111       .  S
C665        H671   1.087       .  S
C666        C714   1.442       .  S
C668        C722   1.442       .  S
C673        C674   1.533       .  S
C673        C679   1.530       .  S
C673        C783   1.532   1_554  S
C673        C726   1.468       .  S
C674        H681   1.087       .  S
C675        C676   1.539       .  S
C675        C708   1.442       .  S
C676        C680   1.541       .  S
C676        C784   1.539   1_554  S
C676        H682   1.111       .  S
C677        C779   1.532       .  S
C677        H683   1.087       .  S
C678        C782   1.539       .  S
C678        C709   1.441       .  S
C680        C734   1.444       .  S
O685       Cr703   1.980   1_655  S
O685        C693   1.259       .  A
O686        C687   1.264   1_565  A
O688       Cr704   1.979       .  S
O689       Cr704   2.011       .  S
C690        O691   1.259       .  A
O692       Cr705   2.008   1_565  S
O692        C693   1.264       .  A
C693        C717   1.436       .  S
O694       Cr703   2.011   1_655  S
O694        C702   1.264       .  A
O695        C696   1.258   1_565  A
O697       Cr704   2.010       .  S
O698       Cr704   1.979       .  S
C699        O700   1.264   1_455  A
O701       Cr705   1.977   1_565  S
O701        C702   1.258       .  A
C702        C716   1.436       .  S
Cr703       O706   1.774   1_565  S
Cr705       O706   1.772   1_655  S
C707        C708   1.206       .  T
C709        C710   1.206       .  T
C711        C712   1.206       .  T
C713        C714   1.206       .  T
C715        C716   1.206       .  T
C717        C718   1.206       .  T
C719        C720   1.207       .  T
C720        C721   1.414       .  S
C721        C722   1.206       .  T
C723        C724   1.206       .  T
C724        C725   1.412       .  S
C725        C726   1.206       .  T
C727        C728   1.204       .  T
C728        C729   1.409       .  S
C729        C730   1.204       .  T
C731        C747   1.439       .  S
C731        C732   1.207       .  T
C732        C733   1.415       .  S
C733        C734   1.207       .  T
C735        C736   1.206       .  T
C736        C737   1.412       .  S
C737        C738   1.206       .  T
C739        C740   1.205       .  T
C740        C741   1.410       .  S
C741        C742   1.205       .  T
C742        C743   1.435       .  S
C743        N748   1.357       .  A
N744        C745   1.356       .  A
C745        N746   1.359       .  A
C745        C841   1.436       .  S
C747        N748   1.358       .  A
C749        N750   1.358       .  A
C749        N754   1.356       .  A
C749        C829   1.436       .  S
N750        C751   1.358       .  A
C751        N752   1.357       .  A
C751        C825   1.437       .  S
N752        C753   1.357       .  A
C753        N754   1.356       .  A
C753        C836   1.433       .  S
C755        C756   1.533       .  S
C755        C761   1.528       .  S
C755        C833   1.465       .  S
C756        H763   1.087       .  S
C756        C757   1.365       .  D
C757        C758   1.539       .  S
C757        C824   1.442       .  S
C758        C762   1.541       .  S
C758        H764   1.111       .  S
C759        H765   1.087       .  S
C759        C760   1.364       .  D
C760        C821   1.442       .  S
C761        H766   1.087       .  S
C761        C762   1.361       .  D
C762        C844   1.441       .  S
C767        C773   1.529       .  S
C767        C771   1.533       .  S
C767        C845   1.466       .  S
C768        H775   1.087       .  S
C769        C818   1.442       .  S
C770        C774   1.541       .  S
C770        C772   1.540       .  S
C770        H776   1.111       .  S
C771        H777   1.087       .  S
C772        C820   1.442       .  S
C774        C828   1.442       .  S
C779        C780   1.533       .  S
C779        C785   1.530       .  S
C779        C832   1.468       .  S
C780        H787   1.087       .  S
C781        C782   1.539       .  S
C781        C814   1.442       .  S
C782        C786   1.541       .  S
C782        H788   1.111       .  S
C783        H789   1.087       .  S
C784        C815   1.441       .  S
C786        C840   1.444       .  S
O791       Cr809   1.980   1_655  S
O791        C799   1.259       .  A
O792        C793   1.264   1_565  A
O794       Cr810   1.979       .  S
O795       Cr810   2.011       .  S
C796        O797   1.259       .  A
O798       Cr811   2.008   1_565  S
O798        C799   1.264       .  A
C799        C823   1.436       .  S
O800       Cr809   2.011   1_655  S
O800        C808   1.264       .  A
O801        C802   1.258   1_565  A
O803       Cr810   2.010       .  S
O804       Cr810   1.979       .  S
C805        O806   1.264   1_455  A
O807       Cr811   1.977   1_565  S
O807        C808   1.258       .  A
C808        C822   1.436       .  S
Cr809       O812   1.774   1_565  S
Cr811       O812   1.772   1_655  S
C813        C814   1.206       .  T
C815        C816   1.206       .  T
C817        C818   1.206       .  T
C819        C820   1.206       .  T
C821        C822   1.206       .  T
C823        C824   1.206       .  T
C825        C826   1.207       .  T
C826        C827   1.414       .  S
C827        C828   1.206       .  T
C829        C830   1.206       .  T
C830        C831   1.412       .  S
C831        C832   1.206       .  T
C833        C834   1.204       .  T
C834        C835   1.409       .  S
C835        C836   1.204       .  T
C837        C838   1.207       .  T
C838        C839   1.415       .  S
C839        C840   1.207       .  T
C841        C842   1.206       .  T
C842        C843   1.412       .  S
C843        C844   1.206       .  T
C845        C846   1.205       .  T
C846        C847   1.410       .  S
C847        C848   1.205       .  T
