geometry optimzed in LAMMPS
_audit_creation_date              2020-11-30 
_audit_creation_method            'lammps2cif' 
_symmetry_space_group_name_H-M    'P1' 
_symmetry_Int_Tables_number       1 
_symmetry_cell_setting            triclinic 
loop_ 
_symmetry_equiv_pos_as_xyz 
  x,y,z 
_cell_length_a                    48.68126002 
_cell_length_b                    47.703891208573594 
_cell_length_c                    31.240866641615636 
_cell_angle_alpha                 91.91363517331457 
_cell_angle_beta                  86.18146773194816 
_cell_angle_gamma                 120.68537588186396 
loop_ 
_atom_site_label 
_atom_site_type_symbol 
_atom_site_fract_x 
_atom_site_fract_y 
_atom_site_fract_z 
_atom_site_charge 
C1          C  0.36455056  0.15794406  0.49371528     0.03100
C2          C  0.36424112  0.18862134  0.00628296    -0.13100
C3          C  0.33731898  0.19188906  0.00520902     0.00600
C4          C  0.30727109  0.16391151  0.00044145    -0.11600
C5          C  0.30626083  0.13225874  0.48701956     0.03100
C6          C  0.33460639  0.13060580  0.48405368    -0.11000
H7          H  0.38724786  0.20999493  0.01198515     0.08700
H8          H  0.28681138  0.16704618  0.00138229     0.06200
H9          H  0.33411708  0.10868175  0.47382323     0.06000
C10         C  0.16793324  0.36871273  0.00004011     0.03100
C11         C  0.14028303  0.33768084  0.00215492    -0.13100
C12         C  0.14231556  0.30976617  0.00697927     0.00600
C13         C  0.17233418  0.31273039  0.00959988    -0.11600
C14         C  0.20072053  0.34338628  0.00667003     0.03100
C15         C  0.19818538  0.37135842  0.00088439    -0.11000
H16         H  0.11699142  0.33525660  0.00050743     0.08700
H17         H  0.17341407  0.29092242  0.01434481     0.06200
H18         H  0.21955333  0.39510547  0.99722238     0.06000
C19         C  0.37535367  0.37253294  0.05219532     0.86400
C20         C  0.34066205  0.36488089  0.05299717    -0.53800
C21         C  0.32386991  0.34876488  0.01772662     0.09400
C22         C  0.34370371  0.33801875  0.48764514     0.20300
C23         C  0.37374883  0.34013412  0.04517443    -0.54500
C24         C  0.35740800  0.32297192  0.01085344     0.09500
C25         C  0.38981224  0.39084257  0.00918930    -0.54100
C26         C  0.37184431  0.37228928  0.47628428     0.10000
H27         H  0.33078443  0.37297236  0.07933668     0.14600
H28         H  0.33096561  0.32455544  0.45920200     0.00300
H29         H  0.38384560  0.33081585  0.06678174     0.14900
H30         H  0.41005765  0.41535936  0.00595513     0.14600
C31         C  0.50276187  0.12830495  0.06185175     0.86400
C32         C  0.03259264  0.16244869  0.05377974    -0.53800
C33         C  0.03414433  0.17756329  0.01638919     0.09400
C34         C  0.50957635  0.15869633  0.48539336     0.20300
C35         C  0.47558632  0.13506329  0.05761905    -0.54500
C36         C  0.47551555  0.14830546  0.01930024     0.09500
C37         C  0.50335542  0.10946410  0.02161629    -0.54100
C38         C  0.50885623  0.12602983  0.48058024     0.10000
H39         H  0.05087809  0.17532719  0.07636010     0.14600
H40         H  0.01081197  0.16906984  0.45381002     0.00300
H41         H  0.45790622  0.13009965  0.08371792     0.14900
H42         H  0.50257137  0.08632713  0.02300046     0.14600
C43         C  0.11953086  0.50515653  0.03801656     0.86400
C44         C  0.12419069  0.47543358  0.03505442    -0.53800
C45         C  0.14038337  0.47382906  0.99861468     0.09400
C46         C  0.15191537  0.50267709  0.46166007     0.20300
C47         C  0.15312256  0.03385778  0.02887999    -0.54500
C48         C  0.16889402  0.03274974  0.99174560     0.09500
C49         C  0.10229076  0.50152581  0.99711504    -0.54100
C50         C  0.11933721  0.50021046  0.45564569     0.10000
H51         H  0.11506188  0.45643668  0.05916937     0.14600
H52         H  0.16524810  0.50171515  0.43229862     0.00300
H53         H  0.16396178  0.05375122  0.05168756     0.14900
H54         H  0.07895380  0.49926689  0.99810468     0.14600
O55         O  0.47077749  0.44884988  0.20429572    -0.85400
O56         O  0.03326301  0.47612061  0.22208314    -0.82400
C57         C  0.04672248  0.99904527  0.19668308     0.98100
O58         O  0.04333367  0.02309537  0.20507518    -0.82500
O59         O  0.01688800  0.05898724  0.23435284    -0.85100
C60         C  0.99476897  0.05023976  0.20893846     1.02600
O61         O  0.47033369  0.02225711  0.21358887    -0.77900
O62         O  0.43288391  0.45808270  0.22889031    -0.78100
C63         C  0.44428430  0.44664138  0.20042771     1.02500
O64         O  0.44968390  0.43290621  0.29321445    -0.85400
O65         O  0.01316365  0.46589595  0.31246518    -0.82500
C66         C  0.04157293  0.98770708  0.31651575     0.98100
O67         O  0.05337517  0.01222287  0.29173805    -0.82500
O68         O  0.02076921  0.04264145  0.32031906    -0.85100
C69         C  0.99834453  0.04833251  0.32810153     1.02600
O70         O  0.47481889  0.03650671  0.30465662    -0.77900
O71         O  0.44233014  0.47177559  0.31919019    -0.78100
C72         C  0.43674715  0.44299907  0.32128686     1.02500
Cr73       Cr  0.49156930  0.45829241  0.25835763     1.93700
Cr74       Cr  0.03093814  0.03156756  0.26288080     1.93200
Cr75       Cr  0.45753858  0.49757174  0.26622834     1.39100
O76         O  0.99311384  0.49625289  0.26309625    -1.23100
C77         C  0.10553384  0.99169458  0.11660843    -0.05800
C78         C  0.10275101  0.50771636  0.08047561     0.00100
C79         C  0.08509977  0.52421857  0.08513349    -0.08500
C80         C  0.06595179  0.51949828  0.12295739    -0.05900
C81         C  0.06631112  0.00036372  0.15735535     0.00100
C82         C  0.08710815  0.98777980  0.15503065    -0.08400
C83         C  0.09036339  0.97068433  0.19287946     0.62000
H84         H  0.12244904  0.98342813  0.11582598     0.12700
H85         H  0.05098979  0.53033334  0.12535437     0.12700
C86         C  0.08581926  0.54802124  0.05319971     0.62200
F87         F  0.11495226  0.46634447  0.18709266    -0.22900
F88         F  0.06231311  0.44349969  0.20214968    -0.20300
F89         F  0.09728567  0.99029920  0.22889359    -0.19900
F90         F  0.05737002  0.53325733  0.03279999    -0.20000
F91         F  0.11087983  0.05762246  0.02215443    -0.20300
F92         F  0.08844599  0.07336385  0.07392003    -0.23000
C93         C  0.09461611  0.00632385  0.34443370    -0.05800
C94         C  0.06108749  0.48715096  0.34987371     0.00100
C95         C  0.04809257  0.46656894  0.38657368    -0.08500
C96         C  0.06888757  0.46995379  0.41811472    -0.05900
C97         C  0.10195772  0.49286330  0.41483165     0.00100
C98         C  0.11539072  0.00956210  0.37602642    -0.08400
C99         C  0.15112697  0.03011683  0.36547166     0.62000
H100        H  0.10443659  0.01961527  0.31458028     0.12700
H101        H  0.05914144  0.45521682  0.44687219     0.12700
C102        C  0.01254306  0.44170495  0.39369253     0.62200
F103        F  0.15801891  0.54759304  0.32666524    -0.22900
F104        F  0.16392904  0.51063692  0.36007927    -0.20300
F105        F  0.16551887  0.05278133  0.39702020    -0.19900
F106        F  0.00295804  0.41865837  0.36133145    -0.20000
F107        F  0.99503333  0.95745582  0.39359625    -0.20300
F108        F  0.00522685  0.92648460  0.43406582    -0.23000
C109        C  0.02314001  0.07487386  0.39541897    -0.05800
C110        C  0.00055559  0.06956380  0.36559713     0.00100
C111        C  0.48238106  0.08564162  0.37273232    -0.08500
C112        C  0.48742081  0.10557494  0.40931286    -0.05900
C113        C  0.50969083  0.11020564  0.43916334     0.00100
C114        C  0.02896586  0.09550409  0.43078865    -0.08400
C115        C  0.05591690  0.10057118  0.45813127     0.62000
H116        H  0.03704095  0.06295008  0.39097161     0.12700
H117        H  0.47292128  0.11663644  0.41594226     0.12700
C118        C  0.45782701  0.08169932  0.34184257     0.62200
F119        F  0.08267249  0.10754610  0.43180246    -0.22900
F120        F  0.05081837  0.07588927  0.97669497    -0.20300
F121        F  0.06512534  0.12589449  0.48703273    -0.19900
F122        F  0.43307871  0.04960256  0.34174621    -0.20000
F123        F  0.47208157  0.09073803  0.30093008    -0.20300
F124        F  0.44475226  0.10093181  0.35323541    -0.23000
C125        C  0.02381529  0.12143239  0.13048193    -0.05800
C126        C  0.49890685  0.10898967  0.10290473     0.00100
C127        C  0.47117803  0.07767192  0.11286132    -0.08500
C128        C  0.47120278  0.06046972  0.14856018    -0.05900
C129        C  0.99692922  0.07235255  0.17427833     0.00100
C130        C  0.02321535  0.10434806  0.16674571    -0.08400
C131        C  0.05078761  0.12099161  0.19646624     0.62000
H132        H  0.04479626  0.14471576  0.12463880     0.12700
H133        H  0.45017465  0.03709065  0.15636872     0.12700
C134        C  0.43967230  0.06225111  0.09016617     0.62200
F135        F  0.07217627  0.15309977  0.18499172    -0.22900
F136        F  0.06760996  0.10475348  0.19517223    -0.20300
F137        F  0.03903405  0.12122343  0.23797132    -0.19900
F138        F  0.44380144  0.06709268  0.04647193    -0.20000
F139        F  0.42131985  0.07479380  0.10749331    -0.20300
F140        F  0.42215539  0.02877556  0.09606628    -0.23000
C141        C  0.38522912  0.37109174  0.39831548    -0.05800
C142        C  0.38008278  0.38758741  0.43300387     0.00100
C143        C  0.38810035  0.42029004  0.42731403    -0.08500
C144        C  0.40646204  0.43703270  0.39052223    -0.05900
C145        C  0.41508272  0.42176202  0.35738732     0.00100
C146        C  0.40260783  0.38753315  0.36025220    -0.08400
C147        C  0.40767435  0.36822531  0.32414312     0.62000
H148        H  0.37701405  0.34552418  0.40210307     0.12700
H149        H  0.41419391  0.46266139  0.38805369     0.12700
C150        C  0.37765281  0.43862707  0.45859134     0.62200
F151        F  0.39043136  0.33504515  0.33224413    -0.22900
F152        F  0.43967223  0.37759866  0.31917124    -0.20300
F153        F  0.39767408  0.37346572  0.28633989    -0.19900
F154        F  0.40894446  0.46439745  0.97870687    -0.20000
F155        F  0.35800713  0.42245433  0.98464927    -0.20300
F156        F  0.36449586  0.45312935  0.43634697    -0.23000
C157        C  0.39546949  0.40284768  0.16927559    -0.05800
C158        C  0.42647710  0.42938924  0.16276024     0.00100
C159        C  0.44147667  0.43648377  0.12111523    -0.08500
C160        C  0.42480594  0.41633050  0.08724171    -0.05900
C161        C  0.39291705  0.39024526  0.09257050     0.00100
C162        C  0.37891187  0.38188179  0.13553243    -0.08400
C163        C  0.34747024  0.35131091  0.14914580     0.62000
H164        H  0.38483496  0.39723643  0.20177756     0.12700
H165        H  0.43787158  0.42038006  0.05671510     0.12700
C166        C  0.47529658  0.46496796  0.11211591     0.62200
F167        F  0.35169537  0.33781193  0.18489508    -0.22900
F168        F  0.33601984  0.32719373  0.11845721    -0.20300
F169        F  0.32459213  0.35971676  0.15996417    -0.19900
F170        F  0.49702214  0.45709014  0.12543651    -0.20000
F171        F  0.47932124  0.49257377  0.13349019    -0.20300
F172        F  0.48193855  0.47244974  0.06881744    -0.23000
C173        C  0.06527049  0.23370065  0.04471345    -0.05800
C174        C  0.05954077  0.21269549  0.00923467     0.00100
C175        C  0.08495171  0.22700543  0.47008475    -0.08500
C176        C  0.11074785  0.25936615  0.47105671    -0.05900
C177        C  0.11297385  0.27709587  0.00846096     0.00100
C178        C  0.09203776  0.26535927  0.04545067    -0.08400
C179        C  0.09863205  0.28567773  0.08609889     0.62000
H180        H  0.04890467  0.22460104  0.07280896     0.12700
H181        H  0.12835821  0.26902714  0.44429284     0.12700
C182        C  0.08224057  0.20628347  0.43090462     0.62200
F183        F  0.07746921  0.26810875  0.11999687    -0.22900
F184        F  0.09578707  0.31250688  0.07907887    -0.20300
F185        F  0.12925123  0.29607689  0.09804120    -0.19900
F186        F  0.05646960  0.20081612  0.40845675    -0.20000
F187        F  0.07843587  0.17694246  0.44296812    -0.20300
F188        F  0.10930789  0.22138482  0.40335259    -0.23000
C189        C  0.16634396  0.44655596  0.02811298    -0.05800
C190        C  0.14997757  0.44863599  0.99423917     0.00100
C191        C  0.14327282  0.42542795  0.45673800    -0.08500
C192        C  0.15218337  0.40154168  0.45854310    -0.05900
C193        C  0.16420416  0.39786986  0.99777195     0.00100
C194        C  0.17219539  0.42082125  0.03166493    -0.08400
C195        C  0.18582239  0.41815448  0.07248874     0.62000
H196        H  0.17351153  0.46486916  0.05312542     0.12700
H197        H  0.14355833  0.38189744  0.43535573     0.12700
C198        C  0.12016177  0.42227418  0.42408004     0.62200
F199        F  0.18121763  0.43553416  0.10575107    -0.22900
F200        F  0.21823098  0.43087215  0.06513670    -0.20300
F201        F  0.17121836  0.38606843  0.08577254    -0.19900
F202        F  0.13510985  0.44828503  0.39603299    -0.20000
F203        F  0.09388733  0.42170623  0.44483092    -0.20300
F204        F  0.10927142  0.39392061  0.40028095    -0.23000
C205        C  0.23858528  0.32006049  0.48849776    -0.05800
C206        C  0.23253009  0.34534369  0.00913036     0.00100
C207        C  0.25771254  0.36922308  0.03324219    -0.08500
C208        C  0.28752706  0.37126094  0.02970537    -0.05900
C209        C  0.29216341  0.34657575  0.01078587     0.00100
C210        C  0.26610573  0.31771643  0.49328517    -0.08400
C211        C  0.26572272  0.28745146  0.47590745     0.62000
H212        H  0.21994842  0.30231813  0.46880425     0.12700
H213        H  0.30718248  0.39219290  0.04418361     0.12700
C214        C  0.25413379  0.39173601  0.06547901     0.62200
F215        F  0.23468398  0.26127868  0.47542121    -0.22900
F216        F  0.28214577  0.27854270  0.50132184    -0.20300
F217        F  0.27900107  0.29298080  0.43435035    -0.19900
F218        F  0.22281051  0.37885509  0.08105612    -0.20000
F219        F  0.26536129  0.42168127  0.04647808    -0.20300
F220        F  0.27191538  0.39628989  0.10060971    -0.23000
C221        C  0.25132680  0.11085879  0.46179865    -0.05800
C222        C  0.27025021  0.10372448  0.98564558     0.00100
C223        C  0.25740588  0.07105138  0.00106957    -0.08500
C224        C  0.22475665  0.04801114  0.99644447    -0.05900
C225        C  0.20339838  0.05693637  0.98347554     0.00100
C226        C  0.21551232  0.08934814  0.96968971    -0.08400
C227        C  0.19520070  0.10396684  0.96023262     0.62000
H228        H  0.26023224  0.13458496  0.44760947     0.12700
H229        H  0.21483567  0.02305885  0.00685806     0.12700
C230        C  0.27594876  0.06003518  0.02584009     0.62200
F231        F  0.20173343  0.11485744  0.91823554    -0.22900
F232        F  0.20301744  0.13032624  0.98712404    -0.20300
F233        F  0.16550170  0.08393731  0.46454613    -0.19900
F234        F  0.29184537  0.08260163  0.05714106    -0.20000
F235        F  0.29961550  0.05585296  0.48876796    -0.20300
F236        F  0.25958738  0.02951884  0.53764604    -0.23000
C237        C  0.36488615  0.24767518  0.47510636    -0.05800
C238        C  0.34109540  0.22500249  0.00655100     0.00100
C239        C  0.32526928  0.23460089  0.03822079    -0.08500
C240        C  0.32926869  0.26592670  0.03547440    -0.05900
C241        C  0.35074463  0.28899254  0.00486861     0.00100
C242        C  0.37100934  0.27983048  0.47606149    -0.08400
C243        C  0.39869430  0.30423292  0.44699384     0.62000
H244        H  0.37840628  0.24131311  0.45189352     0.12700
H245        H  0.31669180  0.27327583  0.05888000     0.12700
C246        C  0.30610665  0.21317039  0.07658513     0.62200
F247        F  0.42553422  0.30219694  0.45300658    -0.23700
F248        F  0.40661539  0.33649300  0.95596899    -0.20300
F249        F  0.39088705  0.29676693  0.40473831    -0.19900
F250        F  0.32092632  0.19745097  0.09137609    -0.20000
F251        F  0.27356569  0.18946011  0.55691898    -0.20300
F252        F  0.30350296  0.23146960  0.11024736    -0.23000
C253        C  0.41722926  0.12756290  0.02754655    -0.05800
C254        C  0.44715972  0.15136466  0.00915481     0.00100
C255        C  0.45196546  0.17938812  0.48036638    -0.08500
C256        C  0.42289798  0.17881679  0.47577967    -0.05900
C257        C  0.39074498  0.15526506  0.00419604     0.00100
C258        C  0.39061680  0.13150715  0.03022492    -0.08400
C259        C  0.36511395  0.11255228  0.06522892     0.62000
H260        H  0.41507604  0.10681337  0.04385848     0.12700
H261        H  0.42290947  0.19751462  0.45703650     0.12700
C262        C  0.48284578  0.20867372  0.46308744     0.62200
F263        F  0.37929042  0.11175402  0.10181655    -0.22900
F264        F  0.34857991  0.08017334  0.53961414    -0.20300
F265        F  0.34718580  0.12685961  0.07684761    -0.19900
F266        F  0.49354030  0.20055104  0.42532727    -0.20000
F267        F  0.00242301  0.21615220  0.99650391    -0.20300
F268        F  0.47857551  0.23441962  0.45427775    -0.23000
C269        C  0.36173204  0.15812202  0.00047497     0.03100
C270        C  0.36666513  0.18805987  0.50169230    -0.13100
C271        C  0.33952832  0.19105104  0.50183678     0.00600
C272        C  0.30968139  0.16313851  0.49623289    -0.11600
C273        C  0.30356709  0.13265990  0.99304327     0.03100
C274        C  0.33171992  0.13073617  0.99141740    -0.11000
H275        H  0.38955747  0.20937912  0.50805062     0.08700
H276        H  0.28909163  0.16604676  0.49801885     0.06200
H277        H  0.33104512  0.10846913  0.98253672     0.06000
C278        C  0.17274538  0.37111827  0.49620509     0.03100
C279        C  0.14423251  0.34068781  0.49944733    -0.13100
C280        C  0.14474845  0.31209148  0.50612032     0.00600
C281        C  0.17401969  0.31368281  0.50976866    -0.11600
C282        C  0.20308024  0.34344416  0.50574884     0.03100
C283        C  0.20226988  0.37210454  0.49761105    -0.11000
H284        H  0.12147377  0.33921977  0.49658305     0.08700
H285        H  0.17403825  0.29143961  0.51575503     0.06200
H286        H  0.22451338  0.39495226  0.49262862     0.06000
C287        C  0.37610132  0.37039703  0.55383770     0.86400
C288        C  0.34092606  0.36140125  0.55684989    -0.53800
C289        C  0.32352187  0.34503831  0.52209994     0.09400
C290        C  0.34440850  0.34076431  0.98479872     0.20300
C291        C  0.37548955  0.33856020  0.54561820    -0.54500
C292        C  0.35842512  0.32121424  0.51184760     0.09500
C293        C  0.38875237  0.38890615  0.51070102    -0.54100
C294        C  0.37365832  0.37468082  0.97405783     0.10000
H295        H  0.33132848  0.36933404  0.58364313     0.14600
H296        H  0.33255145  0.32760106  0.95581428     0.00300
H297        H  0.38667579  0.32970025  0.56604743     0.14900
H298        H  0.40827218  0.41382431  0.50706649     0.14600
C299        C  0.50580539  0.13083332  0.55822890     0.86400
C300        C  0.03626274  0.16477410  0.55082241    -0.53800
C301        C  0.03820368  0.17967663  0.51306586     0.09400
C302        C  0.50544759  0.15631391  0.98948818     0.20300
C303        C  0.47900433  0.13812150  0.55323532    -0.54500
C304        C  0.47945300  0.15106245  0.51434466     0.09500
C305        C  0.50611805  0.11153376  0.51855229    -0.54100
C306        C  0.50520183  0.12388040  0.98384912     0.10000
H307        H  0.05335709  0.17770522  0.57505637     0.14600
H308        H  0.00624507  0.16679095  0.95753065     0.00300
H309        H  0.46105050  0.13354597  0.57872602     0.14900
H310        H  0.50432707  0.08794455  0.52048037     0.14600
C311        C  0.12263382  0.50527400  0.53418938     0.86400
C312        C  0.12790383  0.47590830  0.53008474    -0.53800
C313        C  0.14357772  0.47475054  0.49281350     0.09400
C314        C  0.14993446  0.50195511  0.96708756     0.20300
C315        C  0.15619697  0.03500190  0.52678394    -0.54500
C316        C  0.17122968  0.03385209  0.48896457     0.09500
C317        C  0.10443532  0.50147890  0.49407955    -0.54100
C318        C  0.11782570  0.50003348  0.95943056     0.10000
H319        H  0.11980839  0.45688275  0.55390084     0.14600
H320        H  0.16378407  0.50083771  0.93842926     0.00300
H321        H  0.16772258  0.05463016  0.54979066     0.14900
H322        H  0.08093333  0.49889798  0.49614088     0.14600
O323        O  0.47575842  0.45142306  0.70110636    -0.85400
O324        O  0.03778793  0.47799725  0.72001249    -0.82400
C325        C  0.05152617  0.00262879  0.69637553     0.98100
O326        O  0.04876822  0.02703593  0.70500706    -0.82500
O327        O  0.02230420  0.06342923  0.73216364    -0.85100
C328        C  0.00065668  0.05442713  0.70585271     1.02600
O329        O  0.47484356  0.02669275  0.71045978    -0.77900
O330        O  0.43746178  0.45987039  0.72582969    -0.78100
C331        C  0.44891670  0.44844218  0.69748390     1.02500
O332        O  0.45406775  0.43510366  0.79048453    -0.85400
O333        O  0.01682102  0.46719039  0.80996521    -0.82500
C334        C  0.04387117  0.99062821  0.81641868     0.98100
O335        O  0.05648620  0.01563066  0.79245669    -0.82500
O336        O  0.02424016  0.04678386  0.81930739    -0.85100
C337        C  0.00162149  0.05227910  0.82645350     1.02600
O338        O  0.47781635  0.04075838  0.80163301    -0.77900
O339        O  0.44631762  0.47389379  0.81591818    -0.78100
C340        C  0.44103930  0.44523817  0.81848721     1.02500
Cr341      Cr  0.49616978  0.46072099  0.75561676     1.93700
Cr342      Cr  0.03529323  0.03558066  0.76218412     1.93200
Cr343      Cr  0.46178485  0.49958071  0.76285610     1.39100
O344        O  0.99745483  0.49814705  0.76066151    -1.23100
C345        C  0.10781297  0.99203201  0.61488844    -0.05800
C346        C  0.10638762  0.50788437  0.57737397     0.00100
C347        C  0.09085800  0.52649823  0.58336319    -0.08500
C348        C  0.07249684  0.52280604  0.62178446    -0.05900
C349        C  0.07093757  0.00354297  0.65699054     0.00100
C350        C  0.09002898  0.98895833  0.65375290    -0.08400
C351        C  0.09211185  0.97056923  0.69105495     0.62000
H352        H  0.12334359  0.98207070  0.61347040     0.12700
H353        H  0.05897793  0.53519795  0.62495664     0.12700
C354        C  0.09226518  0.55070302  0.55148597     0.62200
F355        F  0.11472726  0.46150878  0.68157397    -0.22900
F356        F  0.06298085  0.44279593  0.69871589    -0.20300
F357        F  0.10009998  0.98985913  0.72744642    -0.19900
F358        F  0.06385236  0.53658966  0.53113373    -0.20000
F359        F  0.11759973  0.06167780  0.52278374    -0.20300
F360        F  0.09777559  0.07904822  0.57596389    -0.23000
C361        C  0.09584427  0.00644856  0.84544584    -0.05800
C362        C  0.06293417  0.48881969  0.85062544     0.00100
C363        C  0.04833468  0.46995412  0.88843019    -0.08500
C364        C  0.06807259  0.47185493  0.92048159    -0.05900
C365        C  0.10147432  0.49326468  0.91788491     0.00100
C366        C  0.11568212  0.00850409  0.87768881    -0.08400
C367        C  0.15160387  0.02813118  0.86819700     0.62000
H368        H  0.10649133  0.01929092  0.81544756     0.12700
H369        H  0.05718019  0.45733645  0.94923800     0.12700
C370        C  0.01216161  0.44898550  0.89646771     0.62200
F371        F  0.16036874  0.54810549  0.83208411    -0.22900
F372        F  0.16475558  0.51009933  0.86540951    -0.20300
F373        F  0.16613944  0.04970495  0.90077056    -0.19900
F374        F  0.00006373  0.42308653  0.86810128    -0.20000
F375        F  0.99842597  0.96913842  0.89264605    -0.20300
F376        F  0.00321002  0.93744487  0.93886122    -0.23000
C377        C  0.02564206  0.07911235  0.89439323    -0.05800
C378        C  0.00239133  0.07236214  0.86489146     0.00100
C379        C  0.48102066  0.08560419  0.87385652    -0.08500
C380        C  0.48429812  0.10372287  0.91195335    -0.05900
C381        C  0.50675579  0.10887216  0.94183004     0.00100
C382        C  0.02931923  0.09784919  0.93138850    -0.08400
C383        C  0.05710979  0.10466904  0.95825567     0.62000
H384        H  0.04170702  0.06976461  0.88854335     0.12700
H385        H  0.46851779  0.11319732  0.91948842     0.12700
C386        C  0.45640608  0.08140377  0.84287996     0.62200
F387        F  0.08476819  0.11650782  0.93191425    -0.22900
F388        F  0.04633619  0.07218000  0.48037936    -0.20300
F389        F  0.06321544  0.12738226  0.99030338    -0.19900
F390        F  0.43340938  0.04877224  0.83957112    -0.20000
F391        F  0.47132113  0.09343836  0.80295520    -0.20300
F392        F  0.44089587  0.09798596  0.85634396    -0.23000
C393        C  0.03191953  0.11985022  0.61818790    -0.05800
C394        C  0.50280512  0.11193925  0.59905774     0.00100
C395        C  0.47372613  0.08365759  0.61441196    -0.08500
C396        C  0.47406965  0.06804735  0.65153742    -0.05900
C397        C  0.00327673  0.07612874  0.67044722     0.00100
C398        C  0.03253618  0.10267776  0.65356047    -0.08400
C399        C  0.06464985  0.11254772  0.67125362     0.62000
H400        H  0.05449116  0.13866775  0.60433228     0.12700
H401        H  0.45166192  0.04811316  0.66481170     0.12700
C402        C  0.44158467  0.06833032  0.59364284     0.62200
F403        F  0.09003873  0.13784321  0.64824839    -0.22900
F404        F  0.06952044  0.08644231  0.66926795    -0.20300
F405        F  0.06533097  0.12282740  0.71327509    -0.19900
F406        F  0.44484315  0.07137452  0.54960823    -0.20000
F407        F  0.42435075  0.08222924  0.61059481    -0.20300
F408        F  0.42359938  0.03515967  0.60194750    -0.23000
C409        C  0.38868981  0.37369708  0.89626343    -0.05800
C410        C  0.38353290  0.39038566  0.93075952     0.00100
C411        C  0.39267829  0.42346369  0.92499042    -0.08500
C412        C  0.41159292  0.43999353  0.88835777    -0.05900
C413        C  0.41954735  0.42428053  0.85508652     0.00100
C414        C  0.40640467  0.38995536  0.85816420    -0.08400
C415        C  0.41090143  0.37033122  0.82202181     0.62000
H416        H  0.37993659  0.34801682  0.90008929     0.12700
H417        H  0.42014459  0.46581701  0.88597347     0.12700
C418        C  0.38293013  0.44246502  0.95613332     0.62200
F419        F  0.39318907  0.33717724  0.83022580    -0.22900
F420        F  0.44274033  0.37914268  0.81677524    -0.20300
F421        F  0.40098608  0.37584702  0.78433263    -0.19900
F422        F  0.40392377  0.46270785  0.47879075    -0.20000
F423        F  0.35472050  0.41855688  0.48920735    -0.20300
F424        F  0.37275732  0.45968368  0.93358164    -0.23000
C425        C  0.39971862  0.40311733  0.66922620    -0.05800
C426        C  0.43043526  0.42980820  0.66087658     0.00100
C427        C  0.44429254  0.43596183  0.61858702    -0.08500
C428        C  0.42670160  0.41481669  0.58593649    -0.05900
C429        C  0.39493762  0.38878754  0.59312701     0.00100
C430        C  0.38227477  0.38126377  0.63670444    -0.08400
C431        C  0.35146727  0.35061237  0.65188049     0.62000
H432        H  0.38998888  0.39826016  0.70218066     0.12700
H433        H  0.43872362  0.41824028  0.55468465     0.12700
C434        C  0.47736110  0.46513693  0.60749252     0.62200
F435        F  0.35629129  0.33907699  0.68906741    -0.22900
F436        F  0.34099772  0.32541944  0.62268380    -0.20300
F437        F  0.32771833  0.35805840  0.66095522    -0.19900
F438        F  0.50057080  0.46016349  0.62260723    -0.20000
F439        F  0.47983745  0.49312853  0.62568005    -0.20300
F440        F  0.48335096  0.47018466  0.56362498    -0.23000
C441        C  0.06632791  0.23620513  0.54060780    -0.05800
C442        C  0.06281609  0.21490952  0.50623433     0.00100
C443        C  0.08042692  0.22490297  0.97176142    -0.08500
C444        C  0.10675283  0.25708205  0.97222111    -0.05900
C445        C  0.11497104  0.27981913  0.50637245     0.00100
C446        C  0.09224632  0.26839203  0.54162549    -0.08400
C447        C  0.09609381  0.28946786  0.58093270     0.62000
H448        H  0.04892721  0.22690636  0.56762783     0.12700
H449        H  0.12312132  0.26696214  0.94422883     0.12700
C450        C  0.07600956  0.20457445  0.93164219     0.62200
F451        F  0.07228234  0.27275530  0.61266287    -0.22900
F452        F  0.09465223  0.31645957  0.56983643    -0.20300
F453        F  0.12526136  0.29959013  0.59788344    -0.19900
F454        F  0.04987018  0.20023567  0.91112379    -0.20000
F455        F  0.07175444  0.17476261  0.94203471    -0.20300
F456        F  0.10238891  0.21940824  0.90290234    -0.23000
C457        C  0.17387687  0.45116373  0.51915701    -0.05800
C458        C  0.15464822  0.45078944  0.48753681     0.00100
C459        C  0.13984329  0.42446390  0.96170578    -0.08500
C460        C  0.14811313  0.40009363  0.96339566    -0.05900
C461        C  0.17038976  0.40108277  0.49151332     0.00100
C462        C  0.18096229  0.42628480  0.52281137    -0.08400
C463        C  0.19796548  0.42631878  0.56159150     0.62000
H464        H  0.18200073  0.47058446  0.54267385     0.12700
H465        H  0.14095514  0.38166146  0.93858676     0.12700
C466        C  0.11872806  0.42293854  0.92704645     0.62200
F467        F  0.20128124  0.44996516  0.59118966    -0.22900
F468        F  0.22819248  0.43280334  0.54852457    -0.20300
F469        F  0.18078268  0.39645746  0.58205377    -0.19900
F470        F  0.13548107  0.44952537  0.90024963    -0.20000
F471        F  0.09199517  0.42266038  0.94559325    -0.20300
F472        F  0.10835280  0.39514536  0.90215537    -0.23000
C473        C  0.23759604  0.32195606  0.98694953    -0.05800
C474        C  0.23385243  0.34384897  0.51015154     0.00100
C475        C  0.25813644  0.36630505  0.53651993    -0.08500
C476        C  0.28763468  0.36786513  0.53420609    -0.05900
C477        C  0.29199848  0.34301887  0.51549700     0.00100
C478        C  0.26607026  0.32091490  0.98925155    -0.08400
C479        C  0.26709003  0.29225730  0.96846255     0.62000
H480        H  0.21869409  0.30389123  0.96791851     0.12700
H481        H  0.30686305  0.38814947  0.55024658     0.12700
C482        C  0.25388073  0.38690647  0.57116827     0.62200
F483        F  0.23656965  0.26610228  0.96319153    -0.22900
F484        F  0.28219780  0.28157824  0.99367506    -0.20300
F485        F  0.28269518  0.30123141  0.92832559    -0.19900
F486        F  0.22233560  0.37793024  0.57968009    -0.20000
F487        F  0.27180514  0.41932973  0.55931273    -0.20300
F488        F  0.26481029  0.38304208  0.60907320    -0.23000
C489        C  0.24879425  0.11063005  0.96662298    -0.05800
C490        C  0.27288118  0.10351149  0.47959494     0.00100
C491        C  0.25995434  0.07081199  0.49480174    -0.08500
C492        C  0.22703612  0.04818488  0.49153647    -0.05900
C493        C  0.20573036  0.05758821  0.47979451     0.00100
C494        C  0.21802031  0.09005309  0.46618540    -0.08400
C495        C  0.19795850  0.10534421  0.45887260     0.62000
H496        H  0.25764740  0.13425743  0.95217447     0.12700
H497        H  0.21698432  0.02323423  0.50198816     0.12700
C498        C  0.27894695  0.05943486  0.51773756     0.62200
F499        F  0.20452509  0.11772805  0.41764093    -0.22900
F500        F  0.20599371  0.13073706  0.48757555    -0.20300
F501        F  0.16276333  0.08245287  0.96630274    -0.19900
F502        F  0.29514739  0.08145187  0.54942447    -0.20000
F503        F  0.29686214  0.05571797  0.99828646    -0.20300
F504        F  0.25613286  0.03055263  0.04658017    -0.23000
C505        C  0.36252665  0.24802549  0.97594786    -0.05800
C506        C  0.34294308  0.22393170  0.50459773     0.00100
C507        C  0.32570187  0.23240447  0.53557418    -0.08500
C508        C  0.32998948  0.26385770  0.53416313    -0.05900
C509        C  0.35214126  0.28760830  0.50489849     0.00100
C510        C  0.36924532  0.28044991  0.97634682    -0.08400
C511        C  0.39762503  0.30443507  0.94783120     0.62000
H512        H  0.37556186  0.24103532  0.95277466     0.12700
H513        H  0.31682200  0.27062453  0.55739141     0.12700
C514        C  0.30383582  0.20947031  0.57132771     0.62200
F515        F  0.42373875  0.30124863  0.95448499    -0.23700
F516        F  0.40672863  0.33606028  0.45485489    -0.20300
F517        F  0.39030741  0.29749354  0.90536133    -0.19900
F518        F  0.31558309  0.19061567  0.58538705    -0.20000
F519        F  0.27563980  0.19029914  0.06529511    -0.20300
F520        F  0.30129152  0.22672978  0.60638122    -0.23000
C521        C  0.42103302  0.12825727  0.51914172    -0.05800
C522        C  0.45094905  0.15308784  0.50237781     0.00100
C523        C  0.44849547  0.17772667  0.98682135    -0.08500
C524        C  0.41972240  0.17772933  0.98239315    -0.05900
C525        C  0.39382395  0.15540291  0.49658918     0.00100
C526        C  0.39392101  0.13126875  0.52152814    -0.08400
C527        C  0.36808481  0.11103611  0.55548144     0.62000
H528        H  0.41931839  0.10749657  0.53485769     0.12700
H529        H  0.41996879  0.19621160  0.96287811     0.12700
C530        C  0.47938953  0.20669437  0.96905399     0.62200
F531        F  0.38168192  0.10827745  0.59148660    -0.22900
F532        F  0.34565268  0.08092623  0.05170004    -0.20300
F533        F  0.35042644  0.12530217  0.56892685    -0.19900
F534        F  0.48851797  0.19873572  0.92988906    -0.20000
F535        F  0.00594448  0.21929270  0.49241378    -0.20300
F536        F  0.47577632  0.23322514  0.96282725    -0.23000
C537        C  0.36393372  0.65827376  0.49635448     0.03100
C538        C  0.36466142  0.68841802  0.00731170    -0.13100
C539        C  0.33767873  0.69172032  0.00712891     0.00600
C540        C  0.30759964  0.66373214  0.00266724    -0.11600
C541        C  0.30587451  0.63321080  0.48919707     0.03100
C542        C  0.33404614  0.63130573  0.48598703    -0.11000
H543        H  0.38773295  0.70974877  0.01284083     0.08700
H544        H  0.28704764  0.66672947  0.00420098     0.06200
H545        H  0.33344364  0.60946044  0.47498172     0.06000
C546        C  0.16815603  0.86800812  0.99949557     0.03100
C547        C  0.14072000  0.83686361  0.00117772    -0.13100
C548        C  0.14304842  0.80913046  0.00587224     0.00600
C549        C  0.17322219  0.81245562  0.00875152    -0.11600
C550        C  0.20144448  0.84333587  0.00608306     0.03100
C551        C  0.19852720  0.87104413  0.00040255    -0.11000
H552        H  0.11735049  0.83420681  0.99928323     0.08700
H553        H  0.17455911  0.79078482  0.01339894     0.06200
H554        H  0.21963850  0.89490402  0.99647144     0.06000
C555        C  0.37597050  0.87228611  0.05259650     0.86400
C556        C  0.34138416  0.86500832  0.05317658    -0.53800
C557        C  0.32463704  0.84899170  0.01779199     0.09400
C558        C  0.34275660  0.83800467  0.48873887     0.20300
C559        C  0.37402456  0.83973536  0.04557344    -0.54500
C560        C  0.35776763  0.82279483  0.01111464     0.09500
C561        C  0.39069983  0.89069072  0.00973003    -0.54100
C562        C  0.37083356  0.87219467  0.47698353     0.10000
H563        H  0.33153773  0.87313464  0.07953539     0.14600
H564        H  0.33023020  0.82430060  0.46031972     0.00300
H565        H  0.38381951  0.83015614  0.06727909     0.14900
H566        H  0.41102581  0.91517106  0.00666031     0.14600
C567        C  0.50328907  0.62826736  0.05961081     0.86400
C568        C  0.03290197  0.66225913  0.05243623    -0.53800
C569        C  0.03450687  0.67719312  0.01484778     0.09400
C570        C  0.50805043  0.65750935  0.48613841     0.20300
C571        C  0.47590082  0.63463002  0.05499510    -0.54500
C572        C  0.47594293  0.64788342  0.01664975     0.09500
C573        C  0.50432288  0.60954979  0.01951927    -0.54100
C574        C  0.50745516  0.62491487  0.48175479     0.10000
H575        H  0.05094512  0.67531279  0.07531652     0.14600
H576        H  0.00857875  0.66709383  0.45558058     0.00300
H577        H  0.45786427  0.62919703  0.08078180     0.14900
H578        H  0.50372912  0.58651594  0.02105868     0.14600
C579        C  0.11983080  0.00394391  0.03698892     0.86400
C580        C  0.12514248  0.97464389  0.03400951    -0.53800
C581        C  0.14124200  0.97324102  0.99738738     0.09400
C582        C  0.15149514  0.00248111  0.46265664     0.20300
C583        C  0.15310116  0.53471430  0.03043428    -0.54500
C584        C  0.16899850  0.53351496  0.99351066     0.09500
C585        C  0.10215275  0.99977704  0.99637476    -0.54100
C586        C  0.11926075  0.00068860  0.45664356     0.10000
H587        H  0.11644690  0.95570093  0.05812438     0.14600
H588        H  0.16470402  0.00124495  0.43335692     0.00300
H589        H  0.16398939  0.55448225  0.05340900     0.14900
H590        H  0.07871109  0.99728011  0.99773389     0.14600
O591        O  0.47156414  0.94798230  0.20495827    -0.85400
O592        O  0.03363759  0.97458660  0.22163660    -0.82400
C593        C  0.04635780  0.50067442  0.19730791     0.98100
O594        O  0.04279972  0.52462160  0.20573176    -0.82500
O595        O  0.01613606  0.56027855  0.23562793    -0.85100
C596        C  0.99426851  0.55147577  0.20978499     1.02600
O597        O  0.47000704  0.52336593  0.21325772    -0.77900
O598        O  0.43349565  0.95699235  0.22933822    -0.78100
C599        C  0.44508026  0.94573092  0.20090061     1.02500
O600        O  0.45030610  0.93197009  0.29405723    -0.85400
O601        O  0.01356996  0.96460632  0.31206414    -0.82500
C602        C  0.04124296  0.48887623  0.31679457     0.98100
O603        O  0.05297751  0.51345976  0.29214852    -0.82500
O604        O  0.02011453  0.54344146  0.32129883    -0.85100
C605        C  0.99751706  0.54881880  0.32934176     1.02600
O606        O  0.47483539  0.53751812  0.30428416    -0.77900
O607        O  0.44262501  0.97074085  0.31960138    -0.78100
C608        C  0.43711445  0.94199789  0.32188111     1.02500
Cr609      Cr  0.49225828  0.95754600  0.25912107     1.93700
Cr610      Cr  0.03034596  0.53278829  0.26367352     1.93200
Cr611      Cr  0.45785738  0.99651065  0.26663514     1.39100
O612        O  0.99366824  0.99510726  0.26257246    -1.23100
C613        C  0.10531075  0.49325052  0.11768570    -0.05800
C614        C  0.10300447  0.00630210  0.07952803     0.00100
C615        C  0.08511420  0.02255302  0.08425846    -0.08500
C616        C  0.06598213  0.01770066  0.12215337    -0.05900
C617        C  0.06617033  0.50216243  0.15820590     0.00100
C618        C  0.08699832  0.48961850  0.15613340    -0.08400
C619        C  0.09036540  0.47283993  0.19426781     0.62000
H620        H  0.12207579  0.48478135  0.11691493     0.12700
H621        H  0.05095455  0.02845763  0.12466124     0.12700
C622        C  0.08560375  0.04625502  0.05232180     0.62200
F623        F  0.11460058  0.96371054  0.18525348    -0.22900
F624        F  0.06211036  0.94154771  0.20084068    -0.20300
F625        F  0.09685743  0.49250067  0.23019592    -0.19900
F626        F  0.05715709  0.03134389  0.03188861    -0.20000
F627        F  0.11109427  0.55921856  0.02305529    -0.20300
F628        F  0.08886943  0.57522603  0.07477353    -0.23000
C629        C  0.09444108  0.50747883  0.34440614    -0.05800
C630        C  0.06125064  0.98628660  0.35001978     0.00100
C631        C  0.04806418  0.96653144  0.38741751    -0.08500
C632        C  0.06872768  0.97044371  0.41939833    -0.05900
C633        C  0.10184788  0.99310901  0.41587469     0.00100
C634        C  0.11534205  0.51008362  0.37545851    -0.08400
C635        C  0.15105728  0.53056481  0.36473103     0.62000
H636        H  0.10416997  0.52144035  0.31503369     0.12700
H637        H  0.05885023  0.95623845  0.44857032     0.12700
C638        C  0.01246529  0.94195357  0.39471302     0.62200
F639        F  0.15815384  0.04687429  0.32716157    -0.22900
F640        F  0.16420289  0.01035438  0.36142085    -0.20300
F641        F  0.16569462  0.55298471  0.39646033    -0.19900
F642        F  0.00292897  0.91812527  0.36338539    -0.20000
F643        F  0.99495968  0.45713294  0.39426557    -0.20300
F644        F  0.00553770  0.42525749  0.43224079    -0.23000
C645        C  0.02088785  0.57330752  0.39821319    -0.05800
C646        C  0.99929646  0.56928640  0.36750001     0.00100
C647        C  0.48253603  0.58631777  0.37265292    -0.08500
C648        C  0.48699068  0.60546218  0.40986036    -0.05900
C649        C  0.50854220  0.60920374  0.44032723     0.00100
C650        C  0.02616801  0.59317868  0.43435073    -0.08400
C651        C  0.05213305  0.59708546  0.46281562     0.62000
H652        H  0.03438552  0.56095155  0.39383744     0.12700
H653        H  0.47257919  0.61662736  0.41640504     0.12700
C654        C  0.45885019  0.58347367  0.34103162     0.62200
F655        F  0.07877730  0.60213991  0.43760749    -0.22900
F656        F  0.04790737  0.57380590  0.97888288    -0.20300
F657        F  0.06225403  0.62314734  0.49066911    -0.19900
F658        F  0.43362544  0.55165007  0.34000756    -0.20000
F659        F  0.47386689  0.59278605  0.30054283    -0.20300
F660        F  0.44632198  0.60321641  0.35224112    -0.23000
C661        C  0.02493133  0.62095858  0.12815523    -0.05800
C662        C  0.49930746  0.60908592  0.10082529     0.00100
C663        C  0.47172839  0.57761917  0.11056844    -0.08500
C664        C  0.47144227  0.56085975  0.14695717    -0.05900
C665        C  0.99674916  0.57345053  0.17470823     0.00100
C666        C  0.02418250  0.60432886  0.16498923    -0.08400
C667        C  0.05295202  0.62011891  0.19274218     0.62000
H668        H  0.04681845  0.64306950  0.12027565     0.12700
H669        H  0.45044721  0.53742238  0.15464962     0.12700
C670        C  0.44056721  0.56148071  0.08697702     0.62200
F671        F  0.07591176  0.65110465  0.17871519    -0.22900
F672        F  0.06730550  0.60145015  0.19188443    -0.20300
F673        F  0.04326225  0.62308951  0.23446117    -0.19900
F674        F  0.44502651  0.56686683  0.04340861    -0.20000
F675        F  0.42108508  0.57274848  0.10413529    -0.20300
F676        F  0.42412405  0.52792853  0.09209909    -0.23000
C677        C  0.38546666  0.87044803  0.39961827    -0.05800
C678        C  0.37928089  0.88694202  0.43334542     0.00100
C679        C  0.38671807  0.91933376  0.42664132    -0.08500
C680        C  0.40535301  0.93589260  0.38989300    -0.05900
C681        C  0.41511467  0.92076845  0.35787101     0.00100
C682        C  0.40343091  0.88674333  0.36176204    -0.08400
C683        C  0.41010919  0.86754385  0.32712134     0.62000
H684        H  0.37766391  0.84505296  0.40414438     0.12700
H685        H  0.41248256  0.96130980  0.38665892     0.12700
C686        C  0.37551128  0.93755537  0.45694216     0.62200
F687        F  0.39389596  0.83451875  0.33619477    -0.22900
F688        F  0.44244470  0.87823185  0.32361063    -0.20300
F689        F  0.40032636  0.87142083  0.28829648    -0.19900
F690        F  0.40983162  0.96394627  0.98063585    -0.20000
F691        F  0.35867375  0.92242012  0.98638095    -0.20300
F692        F  0.36228035  0.95149310  0.43370559    -0.23000
C693        C  0.39627102  0.90217675  0.16966603    -0.05800
C694        C  0.42738739  0.92851591  0.16317775     0.00100
C695        C  0.44243006  0.93552210  0.12155078    -0.08500
C696        C  0.42564094  0.91547696  0.08769070    -0.05900
C697        C  0.39357625  0.88975185  0.09297577     0.00100
C698        C  0.37954853  0.88140871  0.13589692    -0.08400
C699        C  0.34800845  0.85100917  0.14961636     0.62000
H700        H  0.38562456  0.89656105  0.20216691     0.12700
H701        H  0.43870341  0.91933336  0.05719140     0.12700
C702        C  0.47629727  0.96390957  0.11249190     0.62200
F703        F  0.35261528  0.83667700  0.18411833    -0.22900
F704        F  0.33547843  0.82737513  0.11843488    -0.20300
F705        F  0.32579246  0.85993733  0.16244072    -0.19900
F706        F  0.49795192  0.95614222  0.12638105    -0.20000
F707        F  0.48025572  0.99167876  0.13331843    -0.20300
F708        F  0.48311662  0.97104704  0.06910753    -0.23000
C709        C  0.06546204  0.73337218  0.04284271    -0.05800
C710        C  0.05991422  0.71227735  0.00754887     0.00100
C711        C  0.08289030  0.72471988  0.46940396    -0.08500
C712        C  0.10880381  0.75710619  0.46918532    -0.05900
C713        C  0.11377597  0.77638645  0.00720138     0.00100
C714        C  0.09233388  0.76492596  0.04375373    -0.08400
C715        C  0.09840569  0.78541966  0.08417558     0.62000
H716        H  0.04879719  0.72442198  0.07065847     0.12700
H717        H  0.12593539  0.76628812  0.44186055     0.12700
C718        C  0.07939698  0.70322354  0.43079145     0.62200
F719        F  0.07690529  0.76794026  0.11783803    -0.22900
F720        F  0.09549589  0.81211047  0.07644361    -0.20300
F721        F  0.12887817  0.79601538  0.09689257    -0.19900
F722        F  0.05376854  0.69820269  0.40834005    -0.20000
F723        F  0.07475931  0.67367282  0.44360379    -0.20300
F724        F  0.10640187  0.71735498  0.40303263    -0.23000
C725        C  0.16845937  0.94698721  0.02586799    -0.05800
C726        C  0.15113721  0.94836066  0.99272401     0.00100
C727        C  0.14114680  0.92463797  0.45728466    -0.08500
C728        C  0.14975920  0.90049614  0.45858409    -0.05900
C729        C  0.16421626  0.89696587  0.99733158     0.00100
C730        C  0.17340410  0.92074234  0.03033163    -0.08400
C731        C  0.18630510  0.91821027  0.07197636     0.62000
H732        H  0.17641427  0.96581055  0.05027685     0.12700
H733        H  0.14116163  0.88115476  0.43495910     0.12700
C734        C  0.11799284  0.92194553  0.42500450     0.62200
F735        F  0.17747299  0.93233842  0.10541130    -0.22900
F736        F  0.21924259  0.93450626  0.06760415    -0.20300
F737        F  0.17444380  0.88612667  0.08334979    -0.19900
F738        F  0.13299805  0.94810273  0.39720660    -0.20000
F739        F  0.09193992  0.92154819  0.44622879    -0.20300
F740        F  0.10675720  0.89370703  0.40089545    -0.23000
C741        C  0.23791281  0.82017698  0.48677232    -0.05800
C742        C  0.23348373  0.84577943  0.00829082     0.00100
C743        C  0.25856942  0.86967343  0.03259798    -0.08500
C744        C  0.28828367  0.87145977  0.02969816    -0.05900
C745        C  0.29300630  0.84688676  0.01059305     0.00100
C746        C  0.26536655  0.81786362  0.49229637    -0.08400
C747        C  0.26534768  0.78793310  0.47427827     0.62000
H748        H  0.21973507  0.80270580  0.46629822     0.12700
H749        H  0.30791687  0.89229478  0.04432574     0.12700
C750        C  0.25482515  0.89252417  0.06409587     0.62200
F751        F  0.23439133  0.76171283  0.47286612    -0.22900
F752        F  0.28148254  0.77867328  0.49970164    -0.20300
F753        F  0.27910773  0.79415232  0.43295770    -0.19900
F754        F  0.22394024  0.87831711  0.08193769    -0.20000
F755        F  0.26327756  0.92120115  0.04344665    -0.20300
F756        F  0.27458246  0.90001420  0.09780090    -0.23000
C757        C  0.25118282  0.61199585  0.46342099    -0.05800
C758        C  0.27057693  0.60379078  0.98747935     0.00100
C759        C  0.25745877  0.57135306  0.00380031    -0.08500
C760        C  0.22474383  0.54844900  0.99927739    -0.05900
C761        C  0.20362137  0.55749977  0.98561922     0.00100
C762        C  0.21606866  0.58992625  0.97154585    -0.08400
C763        C  0.19620023  0.60515583  0.96268122     0.62000
H764        H  0.26008756  0.63597439  0.45003691     0.12700
H765        H  0.21461034  0.52359789  0.01027027     0.12700
C766        C  0.27589380  0.56059535  0.02926537     0.62200
F767        F  0.20247215  0.61601233  0.92068215    -0.22900
F768        F  0.20480783  0.63166808  0.98957789    -0.20300
F769        F  0.16520838  0.58401389  0.46344752    -0.19900
F770        F  0.29175166  0.58346026  0.06031538    -0.20000
F771        F  0.29987904  0.55734608  0.49395805    -0.20300
F772        F  0.25865555  0.53110765  0.54119944    -0.23000
C773        C  0.36560607  0.74851354  0.47971508    -0.05800
C774        C  0.34145734  0.72487745  0.00830712     0.00100
C775        C  0.32416951  0.73414839  0.03807064    -0.08500
C776        C  0.32822753  0.76545494  0.03455305    -0.05900
C777        C  0.35082649  0.78874482  0.00505375     0.00100
C778        C  0.37126043  0.78047520  0.47979945    -0.08400
C779        C  0.39917149  0.80490036  0.45105433     0.62000
H780        H  0.37967150  0.74230786  0.45727879     0.12700
H781        H  0.31481741  0.77262581  0.05674016     0.12700
C782        C  0.30285715  0.71246222  0.07514165     0.62200
F783        F  0.42606181  0.80317941  0.45794909    -0.23700
F784        F  0.40733518  0.83628141  0.95703241    -0.20300
F785        F  0.39183444  0.79716473  0.40869357    -0.19900
F786        F  0.31432462  0.69351147  0.08977776    -0.20000
F787        F  0.27124490  0.69917882  0.56451114    -0.20300
F788        F  0.30164969  0.73102267  0.10946318    -0.23000
C789        C  0.41757986  0.62649274  0.02391083    -0.05800
C790        C  0.44755750  0.65077837  0.00631604     0.00100
C791        C  0.45068322  0.67843004  0.48156849    -0.08500
C792        C  0.42172410  0.67806779  0.47722793    -0.05900
C793        C  0.39124140  0.65503859  0.00320746     0.00100
C794        C  0.39113596  0.63069345  0.02793437    -0.08400
C795        C  0.36630199  0.61187271  0.06369008     0.62000
H796        H  0.41547821  0.60543640  0.03932871     0.12700
H797        H  0.42166489  0.69652845  0.45803251     0.12700
C798        C  0.48150245  0.70749701  0.46374153     0.62200
F799        F  0.38133765  0.61157053  0.09963829    -0.22900
F800        F  0.34864927  0.58086194  0.54745266    -0.20300
F801        F  0.34837884  0.62603496  0.07607413    -0.19900
F802        F  0.49183400  0.69905896  0.42593389    -0.20000
F803        F  0.00273188  0.71616620  0.99711311    -0.20300
F804        F  0.47729535  0.73326908  0.45482299    -0.23000
C805        C  0.36216390  0.65797078  0.00061679     0.03100
C806        C  0.36630461  0.68836170  0.50528358    -0.13100
C807        C  0.33938206  0.69170024  0.50547453     0.00600
C808        C  0.30942901  0.66407733  0.49898457    -0.11600
C809        C  0.30390373  0.63257021  0.99468022     0.03100
C810        C  0.33202590  0.63061234  0.99193419    -0.11000
H811        H  0.38926374  0.70939165  0.51218270     0.08700
H812        H  0.28885025  0.66713820  0.50148593     0.06200
H813        H  0.33115454  0.60831862  0.98248264     0.06000
C814        C  0.17057408  0.86971903  0.49494961     0.03100
C815        C  0.14236496  0.83900353  0.49699899    -0.13100
C816        C  0.14334942  0.81055802  0.50278856     0.00600
C817        C  0.17281265  0.81257859  0.50646159    -0.11600
C818        C  0.20163230  0.84268244  0.50367711     0.03100
C819        C  0.20033305  0.87121782  0.49654453    -0.11000
H820        H  0.11944278  0.83721842  0.49434030     0.08700
H821        H  0.17313996  0.79044451  0.51201292     0.06200
H822        H  0.22236620  0.89440286  0.49265752     0.06000
C823        C  0.37502584  0.87109657  0.55468685     0.86400
C824        C  0.33975860  0.86189823  0.55745968    -0.53800
C825        C  0.32241039  0.84518422  0.52273221     0.09400
C826        C  0.34515641  0.84090424  0.98501411     0.20300
C827        C  0.37451585  0.83923457  0.54715571    -0.54500
C828        C  0.35748030  0.82152036  0.51356210     0.09500
C829        C  0.38760357  0.88923362  0.51128350    -0.54100
C830        C  0.37455544  0.87476717  0.97454329     0.10000
H831        H  0.33006574  0.86984401  0.58413275     0.14600
H832        H  0.33351287  0.82792827  0.95589028     0.00300
H833        H  0.38576778  0.83064874  0.56789840     0.14900
H834        H  0.40703487  0.91417648  0.50735586     0.14600
C835        C  0.50506659  0.63053300  0.55941670     0.86400
C836        C  0.03482035  0.66418011  0.55249238    -0.53800
C837        C  0.03651544  0.67837529  0.51422719     0.09400
C838        C  0.50603964  0.65613988  0.98708973     0.20300
C839        C  0.47822573  0.63775075  0.55459587    -0.54500
C840        C  0.47819798  0.65016824  0.51556467     0.09500
C841        C  0.50506987  0.61081674  0.51995250    -0.54100
C842        C  0.50609169  0.62384140  0.98167726     0.10000
H843        H  0.05232218  0.67764750  0.57602172     0.14600
H844        H  0.00645759  0.66635319  0.95609843     0.00300
H845        H  0.46070949  0.63372085  0.58048753     0.14900
H846        H  0.50343993  0.58732805  0.52221284     0.14600
C847        C  0.12259453  0.00557138  0.53519124     0.86400
C848        C  0.12710419  0.97577794  0.53096725    -0.53800
C849        C  0.14257351  0.97435707  0.49369677     0.09400
C850        C  0.15001311  0.00098751  0.96567176     0.20300
C851        C  0.15599166  0.53506146  0.52570953    -0.54500
C852        C  0.17124725  0.53416547  0.48796764     0.09500
C853        C  0.10452178  0.00225936  0.49508667    -0.54100
C854        C  0.11755657  0.99841719  0.95848883     0.10000
H855        H  0.11860603  0.95664965  0.55473974     0.14600
H856        H  0.16371063  0.99985775  0.93681979     0.00300
H857        H  0.16728012  0.55471723  0.54874584     0.14900
H858        H  0.08119419  0.00010841  0.49717261     0.14600
O859        O  0.47546847  0.95268140  0.70149647    -0.85400
O860        O  0.03766588  0.97797612  0.72085598    -0.82400
C861        C  0.05157516  0.50285152  0.69577379     0.98100
O862        O  0.04847227  0.52705373  0.70467942    -0.82500
O863        O  0.02070471  0.56213959  0.73336372    -0.85100
C864        C  0.99910766  0.55320681  0.70706363     1.02600
O865        O  0.47489568  0.52527295  0.70975188    -0.77900
O866        O  0.43724813  0.96133934  0.72601823    -0.78100
C867        C  0.44872915  0.94993044  0.69763780     1.02500
O868        O  0.45293943  0.93595565  0.79035865    -0.85400
O869        O  0.01613956  0.96751256  0.81039414    -0.82500
C870        C  0.04439836  0.49056731  0.81596245     0.98100
O871        O  0.05667394  0.51544961  0.79185327    -0.82500
O872        O  0.02308618  0.54509621  0.81961377    -0.85100
C873        C  0.00041425  0.55053744  0.82664458     1.02600
O874        O  0.47814162  0.53961522  0.80069474    -0.77900
O875        O  0.44560769  0.97480739  0.81649105    -0.78100
C876        C  0.44020286  0.94606510  0.81873712     1.02500
Cr877      Cr  0.49532270  0.96147268  0.75650916     1.93700
Cr878      Cr  0.03459775  0.53476488  0.76227637     1.93200
Cr879      Cr  0.46143369  0.00081771  0.76351643     1.39100
O880        O  0.99786598  0.99927361  0.76074231    -1.23100
C881        C  0.10749357  0.49173343  0.61387415    -0.05800
C882        C  0.10657193  0.00818500  0.57844461     0.00100
C883        C  0.09069865  0.02640781  0.58438611    -0.08500
C884        C  0.07181124  0.02200866  0.62236443    -0.05900
C885        C  0.07129288  0.50409592  0.65637219     0.00100
C886        C  0.08999439  0.48905436  0.65288444    -0.08400
C887        C  0.09220511  0.47077439  0.69021599     0.62000
H888        H  0.12280536  0.48153758  0.61248100     0.12700
H889        H  0.05785850  0.03393171  0.62528588     0.12700
C890        C  0.09280603  0.05147902  0.55344686     0.62200
F891        F  0.11504717  0.96182372  0.68276057    -0.22900
F892        F  0.06298713  0.94230463  0.69882208    -0.20300
F893        F  0.10088823  0.49042881  0.72626209    -0.19900
F894        F  0.06428640  0.03858491  0.53356344    -0.20000
F895        F  0.11734310  0.56121944  0.52122563    -0.20300
F896        F  0.09614026  0.57827240  0.57294088    -0.23000
C897        C  0.09643407  0.50753982  0.84586975    -0.05800
C898        C  0.06234215  0.98837515  0.85073022     0.00100
C899        C  0.04775838  0.96962624  0.88859822    -0.08500
C900        C  0.06756684  0.97077645  0.92003654    -0.05900
C901        C  0.10104419  0.99177907  0.91710700     0.00100
C902        C  0.11618368  0.51001779  0.87851078    -0.08400
C903        C  0.15212099  0.53024537  0.86963913     0.62000
H904        H  0.10714208  0.52050827  0.81596442     0.12700
H905        H  0.05667378  0.95612727  0.94868913     0.12700
C906        C  0.01159613  0.94975960  0.89748179     0.62200
F907        F  0.15980398  0.04613972  0.83078575    -0.22900
F908        F  0.16355676  0.00741213  0.86326387    -0.20300
F909        F  0.16592213  0.55195493  0.90233965    -0.19900
F910        F  0.99837606  0.92363957  0.86956344    -0.20000
F911        F  0.99804882  0.46746981  0.89146913    -0.20300
F912        F  0.00357537  0.43623915  0.93761218    -0.23000
C913        C  0.02390217  0.57670630  0.89486742    -0.05800
C914        C  0.00116374  0.57065315  0.86491458     0.00100
C915        C  0.48174137  0.58507066  0.87208758    -0.08500
C916        C  0.48516435  0.60348451  0.90990342    -0.05900
C917        C  0.50760541  0.60868956  0.93982184     0.00100
C918        C  0.02808910  0.59601827  0.93131830    -0.08400
C919        C  0.05556299  0.60236814  0.95848229     0.62000
H920        H  0.03928264  0.56648969  0.88967621     0.12700
H921        H  0.46952349  0.61315869  0.91717652     0.12700
C922        C  0.45735294  0.58103784  0.84082026     0.62200
F923        F  0.08294551  0.61212711  0.93214883    -0.22900
F924        F  0.04074414  0.56881139  0.48620923    -0.20300
F925        F  0.06289418  0.62643735  0.98891763    -0.19900
F926        F  0.43398467  0.54850875  0.83788656    -0.20000
F927        F  0.47241963  0.59260032  0.80082532    -0.20300
F928        F  0.44229021  0.59817119  0.85369354    -0.23000
C929        C  0.02945889  0.62130572  0.62375755    -0.05800
C930        C  0.50196096  0.61188020  0.60063104     0.00100
C931        C  0.47322148  0.58254356  0.61442662    -0.08500
C932        C  0.47369120  0.56609130  0.65058388    -0.05900
C933        C  0.00129278  0.57553288  0.67296775     0.00100
C934        C  0.03001967  0.60397576  0.65891713    -0.08400
C935        C  0.06160722  0.61588735  0.67960368     0.62000
H936        H  0.05198019  0.64113254  0.61160042     0.12700
H937        H  0.45164644  0.54488873  0.66224216     0.12700
C938        C  0.44099897  0.56768990  0.59383753     0.62200
F939        F  0.08653113  0.64368651  0.66004847    -0.22900
F940        F  0.06978681  0.59204389  0.67656490    -0.20300
F941        F  0.05888931  0.62344996  0.72222478    -0.19900
F942        F  0.44413396  0.57060405  0.54979888    -0.20000
F943        F  0.42439331  0.58225331  0.61082033    -0.20300
F944        F  0.42231216  0.53459310  0.60232011    -0.23000
C945        C  0.38961048  0.87434318  0.89683909    -0.05800
C946        C  0.38427150  0.89075869  0.93147937     0.00100
C947        C  0.39285755  0.92372035  0.92595210    -0.08500
C948        C  0.41102124  0.94033811  0.88891698    -0.05900
C949        C  0.41906626  0.92491117  0.85538417     0.00100
C950        C  0.40681847  0.89072098  0.85859221    -0.08400
C951        C  0.41188445  0.87133032  0.82259866     0.62000
H952        H  0.38148842  0.84880120  0.90072665     0.12700
H953        H  0.41911314  0.96605711  0.88654231     0.12700
C954        C  0.38358947  0.94261057  0.95799965     0.62200
F955        F  0.39512180  0.83821674  0.83120942    -0.22900
F956        F  0.44396450  0.88112005  0.81710410    -0.20300
F957        F  0.40133045  0.87599783  0.78491706    -0.19900
F958        F  0.40134472  0.96205606  0.47739375    -0.20000
F959        F  0.35239057  0.91749156  0.48739034    -0.20300
F960        F  0.37365681  0.96050351  0.93648851    -0.23000
C961        C  0.39925795  0.90494452  0.66962126    -0.05800
C962        C  0.43015140  0.93126141  0.66103699     0.00100
C963        C  0.44388760  0.93692909  0.61867285    -0.08500
C964        C  0.42591907  0.91574482  0.58621387    -0.05900
C965        C  0.39403424  0.88995876  0.59372843     0.00100
C966        C  0.38158411  0.88288016  0.63741727    -0.08400
C967        C  0.35090520  0.85237002  0.65317975     0.62000
H968        H  0.38960214  0.90041316  0.70262140     0.12700
H969        H  0.43776281  0.91884880  0.55488646     0.12700
C970        C  0.47724462  0.96555212  0.60731041     0.62200
F971        F  0.35615050  0.84107806  0.69026657    -0.22900
F972        F  0.34006730  0.82697633  0.62428208    -0.20300
F973        F  0.32728947  0.85994580  0.66266559    -0.19900
F974        F  0.50001803  0.95999003  0.62264060    -0.20000
F975        F  0.48044076  0.99395491  0.62509374    -0.20300
F976        F  0.48324539  0.97023344  0.56338532    -0.23000
C977        C  0.06546980  0.73522901  0.53997600    -0.05800
C978        C  0.06127984  0.71336658  0.50614242     0.00100
C979        C  0.08103292  0.72431070  0.97028384    -0.08500
C980        C  0.10770290  0.75630052  0.97102253    -0.05900
C981        C  0.11367416  0.77816128  0.50403667     0.00100
C982        C  0.09163350  0.76724613  0.54005366    -0.08400
C983        C  0.09658381  0.78858810  0.57938460     0.62000
H984        H  0.04843732  0.72647104  0.56742543     0.12700
H985        H  0.12429355  0.76603981  0.94321817     0.12700
C986        C  0.07619606  0.70411546  0.92992515     0.62200
F987        F  0.07358070  0.77212377  0.61209220    -0.22900
F988        F  0.09494752  0.81558275  0.56892878    -0.20300
F989        F  0.12621277  0.79865902  0.59480186    -0.19900
F990        F  0.05031524  0.70064701  0.90958616    -0.20000
F991        F  0.07114690  0.67388316  0.93984761    -0.20300
F992        F  0.10262613  0.71865815  0.90122624    -0.23000
C993        C  0.17153902  0.94947598  0.52009809    -0.05800
C994        C  0.15284763  0.94983063  0.48829261     0.00100
C995        C  0.13980238  0.92340856  0.96126764    -0.08500
C996        C  0.14768323  0.89881548  0.96327170    -0.05900
C997        C  0.16772932  0.89949547  0.49150469     0.00100
C998        C  0.17789218  0.92410912  0.52361044    -0.08400
C999        C  0.19376527  0.92314279  0.56300868     0.62000
H1000       H  0.17983153  0.96874032  0.54386118     0.12700
H1001       H  0.13987351  0.87994441  0.93900624     0.12700
C1002       C  0.11801900  0.92147599  0.92734314     0.62200
F1003       F  0.19585379  0.94574791  0.59359968    -0.22900
F1004       F  0.22439414  0.93044810  0.55114064    -0.20300
F1005       F  0.17637222  0.89265746  0.58183717    -0.19900
F1006       F  0.13459958  0.94731625  0.89932034    -0.20000
F1007       F  0.09202263  0.92228906  0.94658539    -0.20300
F1008       F  0.10647950  0.89297712  0.90370949    -0.23000
C1009       C  0.23870288  0.82257445  0.98594974    -0.05800
C1010       C  0.23259486  0.84351046  0.50862505     0.00100
C1011       C  0.25642785  0.86578042  0.53572555    -0.08500
C1012       C  0.28595154  0.86740703  0.53433791    -0.05900
C1013       C  0.29077936  0.84287056  0.51558853     0.00100
C1014       C  0.26711904  0.82149170  0.98841622    -0.08400
C1015       C  0.26818052  0.79292441  0.96737009     0.62000
H1016       H  0.21990588  0.80464685  0.96666504     0.12700
H1017       H  0.30487431  0.88764841  0.55083378     0.12700
C1018       C  0.25175682  0.88644032  0.56981586     0.62200
F1019       F  0.23772478  0.76710178  0.96075290    -0.22900
F1020       F  0.28242635  0.78159284  0.99311945    -0.20300
F1021       F  0.28460000  0.80227247  0.92777767    -0.19900
F1022       F  0.22002016  0.87667266  0.57841237    -0.20000
F1023       F  0.26902299  0.91869220  0.55706093    -0.20300
F1024       F  0.26314547  0.88362436  0.60792933    -0.23000
C1025       C  0.24937970  0.61082289  0.96808416    -0.05800
C1026       C  0.27262026  0.60460753  0.48143261     0.00100
C1027       C  0.25978507  0.57187466  0.49636847    -0.08500
C1028       C  0.22711467  0.54895585  0.49166153    -0.05900
C1029       C  0.20576130  0.55814619  0.47932769     0.00100
C1030       C  0.21790741  0.59079176  0.46660278    -0.08400
C1031       C  0.19764145  0.60582861  0.45914960     0.62000
H1032       H  0.25850498  0.63444390  0.95342527     0.12700
H1033       H  0.21719065  0.52395088  0.50174899     0.12700
C1034       C  0.27837683  0.56091822  0.52120968     0.62200
F1035       F  0.20490673  0.61907710  0.41836607    -0.22900
F1036       F  0.20472914  0.63052216  0.48872094    -0.20300
F1037       F  0.16372395  0.58415840  0.96939380    -0.19900
F1038       F  0.29371582  0.58319268  0.55307421    -0.20000
F1039       F  0.29690139  0.55610300  0.00220191    -0.20300
F1040       F  0.25598170  0.53128530  0.05033487    -0.23000
C1041       C  0.36366201  0.74802974  0.97839261    -0.05800
C1042       C  0.34320312  0.72470406  0.50878938     0.00100
C1043       C  0.32494179  0.73293208  0.53829506    -0.08500
C1044       C  0.32854742  0.76402723  0.53555811    -0.05900
C1045       C  0.35143492  0.78796386  0.50708574     0.00100
C1046       C  0.37008017  0.78031984  0.97794914    -0.08400
C1047       C  0.39863638  0.80422347  0.94960924     0.62000
H1048       H  0.37732792  0.74118113  0.95616859     0.12700
H1049       H  0.31463600  0.77047337  0.55793835     0.12700
C1050       C  0.30254887  0.71084318  0.57435152     0.62200
F1051       F  0.42479532  0.80133750  0.95713733    -0.23700
F1052       F  0.40687661  0.83668257  0.45843231    -0.20300
F1053       F  0.39167569  0.79688395  0.90707845    -0.19900
F1054       F  0.30655463  0.68480687  0.58186688    -0.20000
F1055       F  0.27212647  0.69251985  0.06219301    -0.20300
F1056       F  0.30819723  0.72844498  0.61215154    -0.23000
C1057       C  0.41980454  0.62810835  0.52218856    -0.05800
C1058       C  0.44964692  0.65234321  0.50418455     0.00100
C1059       C  0.44899552  0.67775356  0.98553378    -0.08500
C1060       C  0.42023346  0.67793873  0.98178721    -0.05900
C1061       C  0.39289316  0.65533831  0.49907006     0.00100
C1062       C  0.39298737  0.63165280  0.52491826    -0.08400
C1063       C  0.36776818  0.61275460  0.56027721     0.62000
H1064       H  0.41802329  0.60761411  0.53871730     0.12700
H1065       H  0.42053072  0.69693328  0.96336077     0.12700
C1066       C  0.48007835  0.70723170  0.96925892     0.62200
F1067       F  0.38238397  0.61284728  0.59688108    -0.22900
F1068       F  0.34669976  0.58009376  0.05084813    -0.20300
F1069       F  0.34935882  0.62655436  0.57162653    -0.19900
F1070       F  0.49036713  0.70017941  0.93034250    -0.20000
F1071       F  0.00481424  0.71828975  0.49348568    -0.20300
F1072       F  0.47632430  0.73368439  0.96315366    -0.23000
C1073       C  0.86474916  0.15804458  0.49471264     0.03100
C1074       C  0.86361568  0.18752873  0.00636474    -0.13100
C1075       C  0.83666922  0.19081077  0.00556046     0.00600
C1076       C  0.80664885  0.16285849  0.00066270    -0.11600
C1077       C  0.80640612  0.13263552  0.48891938     0.03100
C1078       C  0.83469194  0.13087734  0.48509625    -0.11000
H1079       H  0.88662818  0.20888252  0.01209815     0.08700
H1080       H  0.78620139  0.16600262  0.00172687     0.06200
H1081       H  0.83407385  0.10900085  0.47428001     0.06000
C1082       C  0.66850713  0.36879040  0.00102759     0.03100
C1083       C  0.64074674  0.33781416  0.00293978    -0.13100
C1084       C  0.64255602  0.30977968  0.00794353     0.00600
C1085       C  0.67247095  0.31257751  0.01098756    -0.11600
C1086       C  0.70095989  0.34315242  0.00826837     0.03100
C1087       C  0.69865619  0.37124133  0.00228639    -0.11000
H1088       H  0.61754369  0.33552577  0.00090849     0.08700
H1089       H  0.67339736  0.29069638  0.01585066     0.06200
H1090       H  0.72014495  0.39491132  0.99871909     0.06000
C1091       C  0.87575940  0.37176545  0.05263545     0.86400
C1092       C  0.84116233  0.36444342  0.05357763    -0.53800
C1093       C  0.82420130  0.34841932  0.01838321     0.09400
C1094       C  0.84343222  0.33796521  0.48798362     0.20300
C1095       C  0.87381985  0.33920871  0.04550358    -0.54500
C1096       C  0.85734333  0.32216926  0.01118727     0.09500
C1097       C  0.89027576  0.39004028  0.00962607    -0.54100
C1098       C  0.87167629  0.37217581  0.47654805     0.10000
H1099       H  0.83143733  0.37254363  0.08010386     0.14600
H1100       H  0.83068150  0.32448306  0.45955839     0.00300
H1101       H  0.88379740  0.32970734  0.06702605     0.14900
H1102       H  0.91066261  0.41445383  0.00632004     0.14600
C1103       C  0.00280001  0.12811713  0.06070706     0.86400
C1104       C  0.53275398  0.16246070  0.05469412    -0.53800
C1105       C  0.53431905  0.17757936  0.01733216     0.09400
C1106       C  0.00963286  0.15841276  0.48485994     0.20300
C1107       C  0.97533120  0.13440669  0.05616977    -0.54500
C1108       C  0.97531361  0.14769446  0.01784017     0.09500
C1109       C  0.00392155  0.10951354  0.02049450    -0.54100
C1110       C  0.00898397  0.12577104  0.48002079     0.10000
H1111       H  0.55101006  0.17537487  0.07735197     0.14600
H1112       H  0.51091470  0.16940362  0.45432570     0.00300
H1113       H  0.95721594  0.12870635  0.08194236     0.14900
H1114       H  0.00347474  0.08654236  0.02185192     0.14600
C1115       C  0.61916322  0.50441188  0.03768963     0.86400
C1116       C  0.62395087  0.47477594  0.03459673    -0.53800
C1117       C  0.64033649  0.47338932  0.99824003     0.09400
C1118       C  0.65187390  0.50283447  0.46131216     0.20300
C1119       C  0.65240352  0.03339198  0.02967007    -0.54500
C1120       C  0.66811460  0.03226192  0.99250648     0.09500
C1121       C  0.60201512  0.50085715  0.99671712    -0.54100
C1122       C  0.61921647  0.50024536  0.45541428     0.10000
H1123       H  0.61482608  0.45569706  0.05859048     0.14600
H1124       H  0.66517058  0.50183801  0.43194349     0.00300
H1125       H  0.66333733  0.05321445  0.05255833     0.14900
H1126       H  0.57864229  0.49851860  0.99761445     0.14600
O1127       O  0.97104975  0.44894287  0.20462705    -0.85400
O1128       O  0.53288116  0.47537802  0.22189924    -0.82400
C1129       C  0.54667149  0.99933611  0.19773618     0.98100
O1130       O  0.54325492  0.02336479  0.20616354    -0.82500
O1131       O  0.51665181  0.05907932  0.23557491    -0.85100
C1132       C  0.49473772  0.05028122  0.20983351     1.02600
O1133       O  0.97034493  0.02222880  0.21284400    -0.77900
O1134       O  0.93298756  0.45802043  0.22893297    -0.78100
C1135       C  0.94446884  0.44650968  0.20068615     1.02500
O1136       O  0.95006993  0.43296900  0.29358381    -0.85400
O1137       O  0.51276837  0.46531431  0.31222442    -0.82500
C1138       C  0.54144586  0.98791965  0.31756288     0.98100
O1139       O  0.55323223  0.01239847  0.29274356    -0.82500
O1140       O  0.52041311  0.04253229  0.32139037    -0.85100
C1141       C  0.49802535  0.04828835  0.32903756     1.02600
O1142       O  0.97510117  0.03653707  0.30379727    -0.77900
O1143       O  0.94217376  0.47155654  0.31929258    -0.78100
C1144       C  0.93686584  0.44288658  0.32150693     1.02500
Cr1145     Cr  0.99191353  0.45866569  0.25863692     1.93700
Cr1146     Cr  0.53074635  0.03167963  0.26396079     1.93200
Cr1147     Cr  0.95739344  0.49749338  0.26644689     1.39100
O1148       O  0.49309803  0.49604183  0.26281042    -1.23100
C1149       C  0.60498997  0.99155709  0.11728339    -0.05800
C1150       C  0.60225241  0.50676770  0.08012737     0.00100
C1151       C  0.58464024  0.52330631  0.08486503    -0.08500
C1152       C  0.56548797  0.51853734  0.12267110    -0.05900
C1153       C  0.56616373  0.00062432  0.15836774     0.00100
C1154       C  0.58686538  0.98793029  0.15590333    -0.08400
C1155       C  0.59036205  0.97106702  0.19382581     0.62000
H1156       H  0.62177739  0.98311801  0.11630883     0.12700
H1157       H  0.55059213  0.52944709  0.12514143     0.12700
C1158       C  0.58540367  0.54721715  0.05307656     0.62200
F1159       F  0.61369931  0.46434552  0.18629047    -0.22900
F1160       F  0.56113374  0.44208184  0.20139663    -0.20300
F1161       F  0.59745399  0.99087730  0.22966479    -0.19900
F1162       F  0.55695934  0.53255487  0.03266992    -0.20000
F1163       F  0.61036041  0.05760582  0.02303472    -0.20300
F1164       F  0.58826709  0.07355056  0.07500192    -0.23000
C1165       C  0.59451452  0.00675097  0.34560766    -0.05800
C1166       C  0.56068611  0.48654508  0.34969070     0.00100
C1167       C  0.54768201  0.46641619  0.38678384    -0.08500
C1168       C  0.56854830  0.46991999  0.41829364    -0.05900
C1169       C  0.60167289  0.49266126  0.41470007     0.00100
C1170       C  0.61531625  0.01010699  0.37724202    -0.08400
C1171       C  0.65105239  0.03071891  0.36669546     0.62000
H1172       H  0.60432621  0.01996154  0.31569652     0.12700
H1173       H  0.55881645  0.45543268  0.44725789     0.12700
C1174       C  0.51206021  0.44197700  0.39435494     0.62200
F1175       F  0.65755537  0.54674612  0.32591292    -0.22900
F1176       F  0.66358124  0.51000083  0.35965313    -0.20300
F1177       F  0.66546436  0.05332800  0.39831067    -0.19900
F1178       F  0.50206040  0.41847889  0.36255598    -0.20000
F1179       F  0.49505497  0.95839630  0.39463275    -0.20300
F1180       F  0.50504966  0.92766684  0.43587591    -0.23000
C1181       C  0.52305200  0.07516012  0.39608262    -0.05800
C1182       C  0.50031280  0.06964812  0.36639744     0.00100
C1183       C  0.98265391  0.08559090  0.37196521    -0.08500
C1184       C  0.98758055  0.10536941  0.40868953    -0.05900
C1185       C  0.00978159  0.10990472  0.43859711     0.00100
C1186       C  0.52891230  0.09585686  0.43137062    -0.08400
C1187       C  0.55592663  0.10102625  0.45865451     0.62000
H1188       H  0.53701844  0.06330680  0.39163856     0.12700
H1189       H  0.97310531  0.11645763  0.41531556     0.12700
C1190       C  0.95836092  0.08197524  0.34083907     0.62200
F1191       F  0.58275069  0.10832908  0.43227950    -0.22900
F1192       F  0.54741961  0.07371979  0.97936976    -0.20300
F1193       F  0.56492589  0.12616770  0.48780839    -0.19900
F1194       F  0.93360039  0.04990520  0.34010376    -0.20000
F1195       F  0.97296140  0.09140777  0.30015808    -0.20300
F1196       F  0.94521883  0.10112293  0.35239027    -0.23000
C1197       C  0.52432895  0.12110753  0.13072056    -0.05800
C1198       C  0.99888919  0.10879774  0.10178557     0.00100
C1199       C  0.97146495  0.07718565  0.11124254    -0.08500
C1200       C  0.97134927  0.06014494  0.14722711    -0.05900
C1201       C  0.49705290  0.07237245  0.17508234     0.00100
C1202       C  0.52378356  0.10400653  0.16689301    -0.08400
C1203       C  0.55193690  0.12017454  0.19572049     0.62000
H1204       H  0.54574289  0.14396080  0.12409229     0.12700
H1205       H  0.95048135  0.03654491  0.15460327     0.12700
C1206       C  0.94019124  0.06113326  0.08796534     0.62200
F1207       F  0.57408391  0.15185065  0.18325594    -0.22900
F1208       F  0.56764992  0.10280780  0.19438673    -0.20300
F1209       F  0.54110706  0.12152779  0.23740217    -0.19900
F1210       F  0.94422197  0.06770645  0.04471542    -0.20000
F1211       F  0.92028771  0.07134597  0.10684094    -0.20300
F1212       F  0.92450126  0.02749138  0.09144302    -0.23000
C1213       C  0.88548524  0.37097311  0.39870893    -0.05800
C1214       C  0.88002008  0.38740700  0.43320086     0.00100
C1215       C  0.88786525  0.42003583  0.42732264    -0.08500
C1216       C  0.90626140  0.43677427  0.39053621    -0.05900
C1217       C  0.91519151  0.42159664  0.35761282     0.00100
C1218       C  0.90299230  0.38742795  0.36069909    -0.08400
C1219       C  0.90851126  0.36820505  0.32490276     0.62000
H1220       H  0.87741743  0.34545230  0.40263437     0.12700
H1221       H  0.91380382  0.46234596  0.38792812     0.12700
C1222       C  0.87724143  0.43831770  0.45843166     0.62200
F1223       F  0.89158515  0.33504873  0.33319427    -0.22900
F1224       F  0.94061705  0.37797834  0.32028539    -0.20300
F1225       F  0.89853491  0.37310856  0.28685892    -0.19900
F1226       F  0.91016383  0.46389674  0.97997825    -0.20000
F1227       F  0.85904973  0.42231488  0.98612847    -0.20300
F1228       F  0.86403294  0.45268841  0.43602079    -0.23000
C1229       C  0.89591543  0.40205542  0.16973144    -0.05800
C1230       C  0.92670110  0.42895751  0.16312000     0.00100
C1231       C  0.94163754  0.43616990  0.12145541    -0.08500
C1232       C  0.92517418  0.41574634  0.08766939    -0.05900
C1233       C  0.89340536  0.38941261  0.09301673     0.00100
C1234       C  0.87944547  0.38099715  0.13599894    -0.08400
C1235       C  0.84810531  0.35034982  0.14970486     0.62000
H1236       H  0.88534846  0.39633447  0.20226076     0.12700
H1237       H  0.93830844  0.41988828  0.05719591     0.12700
C1238       C  0.97510928  0.46522309  0.11233149     0.62200
F1239       F  0.85274841  0.33651880  0.18473849    -0.22900
F1240       F  0.83617184  0.32649727  0.11871953    -0.20300
F1241       F  0.82539444  0.35877266  0.16169816    -0.19900
F1242       F  0.99744204  0.45834905  0.12600897    -0.20000
F1243       F  0.97828135  0.49263900  0.13331595    -0.20300
F1244       F  0.98165236  0.47246920  0.06896572    -0.23000
C1245       C  0.56529097  0.23381717  0.04551240    -0.05800
C1246       C  0.55975403  0.21268887  0.01022150     0.00100
C1247       C  0.58488616  0.22720543  0.47095231    -0.08500
C1248       C  0.61067790  0.25956783  0.47192915    -0.05900
C1249       C  0.61311336  0.27715178  0.00931953     0.00100
C1250       C  0.59192027  0.26558691  0.04610443    -0.08400
C1251       C  0.59799058  0.28627892  0.08633598     0.62000
H1252       H  0.54880014  0.22478173  0.07349414     0.12700
H1253       H  0.62827557  0.26923671  0.44515143     0.12700
C1254       C  0.58214352  0.20654976  0.43168687     0.62200
F1255       F  0.57684878  0.26879872  0.12029433    -0.22900
F1256       F  0.59451992  0.31260019  0.07841255    -0.20300
F1257       F  0.62866672  0.29747159  0.09871621    -0.19900
F1258       F  0.55653803  0.20140141  0.40910728    -0.20000
F1259       F  0.57804887  0.17705957  0.44360885    -0.20300
F1260       F  0.60931417  0.22156339  0.40430478    -0.23000
C1261       C  0.66662878  0.44662064  0.02817048    -0.05800
C1262       C  0.65033827  0.44850341  0.99405253     0.00100
C1263       C  0.64333696  0.42561123  0.45662680    -0.08500
C1264       C  0.65216845  0.40168138  0.45863708    -0.05900
C1265       C  0.66496612  0.39804937  0.99821791     0.00100
C1266       C  0.67280896  0.42112602  0.03193939    -0.08400
C1267       C  0.68668852  0.41881301  0.07272144     0.62000
H1268       H  0.67352638  0.46494935  0.05312794     0.12700
H1269       H  0.64347279  0.38193975  0.43559307     0.12700
C1270       C  0.62025821  0.42241406  0.42389342     0.62200
F1271       F  0.68331234  0.43733935  0.10544583    -0.22900
F1272       F  0.71885195  0.43043719  0.06465903    -0.20300
F1273       F  0.67139486  0.38694628  0.08711036    -0.19900
F1274       F  0.63524301  0.44837547  0.39577992    -0.20000
F1275       F  0.59397863  0.42189449  0.44454418    -0.20300
F1276       F  0.60937893  0.39402709  0.40017138    -0.23000
C1277       C  0.73840380  0.32026285  0.48887690    -0.05800
C1278       C  0.73266485  0.34490215  0.01087885     0.00100
C1279       C  0.75786880  0.36866416  0.03505888    -0.08500
C1280       C  0.78771302  0.37074085  0.03126111    -0.05900
C1281       C  0.79238653  0.34618716  0.01189506     0.00100
C1282       C  0.76589107  0.31787026  0.49364059    -0.08400
C1283       C  0.76535806  0.28747086  0.47654620     0.62000
H1284       H  0.71970768  0.30249363  0.46928003     0.12700
H1285       H  0.80736142  0.39160856  0.04584981     0.12700
C1286       C  0.75434918  0.39107568  0.06755015     0.62200
F1287       F  0.73426922  0.26138803  0.47608682    -0.22900
F1288       F  0.78163704  0.27855100  0.50219923    -0.20300
F1289       F  0.77869332  0.29278917  0.43503035    -0.19900
F1290       F  0.72294314  0.37864103  0.08248689    -0.20000
F1291       F  0.76635387  0.42135207  0.04911342    -0.20300
F1292       F  0.77154557  0.39477390  0.10301769    -0.23000
C1293       C  0.75146542  0.11166064  0.46413194    -0.05800
C1294       C  0.76959551  0.10278773  0.98543642     0.00100
C1295       C  0.75672255  0.07003411  0.00056520    -0.08500
C1296       C  0.72395527  0.04718674  0.99644725    -0.05900
C1297       C  0.70262206  0.05635531  0.98412369     0.00100
C1298       C  0.71480834  0.08881718  0.97051244    -0.08400
C1299       C  0.69460688  0.10371189  0.96177842     0.62000
H1300       H  0.76044621  0.13558158  0.45050363     0.12700
H1301       H  0.71396783  0.02218521  0.00668270     0.12700
C1302       C  0.77543414  0.05870235  0.02436227     0.62200
F1303       F  0.70086495  0.11473919  0.91986216    -0.22900
F1304       F  0.70280874  0.13002666  0.98889852    -0.20300
F1305       F  0.66563494  0.08459743  0.46568775    -0.19900
F1306       F  0.79150484  0.08089186  0.05594037    -0.20000
F1307       F  0.79972931  0.05633467  0.48959627    -0.20300
F1308       F  0.75960561  0.02946565  0.53811155    -0.23000
C1309       C  0.86562743  0.24792306  0.47764714    -0.05800
C1310       C  0.84041920  0.22393091  0.00683928     0.00100
C1311       C  0.82452810  0.23359539  0.03835124    -0.08500
C1312       C  0.82878322  0.26504164  0.03564627    -0.05900
C1313       C  0.85037178  0.28807237  0.00508073     0.00100
C1314       C  0.87123896  0.27987593  0.47768053    -0.08400
C1315       C  0.89884869  0.30419839  0.44845022     0.62000
H1316       H  0.87946837  0.24162678  0.45492390     0.12700
H1317       H  0.81627728  0.27249936  0.05901392     0.12700
C1318       C  0.80492661  0.21206549  0.07644832     0.62200
F1319       F  0.92581355  0.30243005  0.45463252    -0.23700
F1320       F  0.90609229  0.33522629  0.95558521    -0.20300
F1321       F  0.89101146  0.29640301  0.40624926    -0.19900
F1322       F  0.81953405  0.19627788  0.09169977    -0.20000
F1323       F  0.77209442  0.19575217  0.56144467    -0.20300
F1324       F  0.80194266  0.23026074  0.10995337    -0.23000
C1325       C  0.91688544  0.12629980  0.02538058    -0.05800
C1326       C  0.94680609  0.15042970  0.00739145     0.00100
C1327       C  0.95200201  0.17913882  0.48034218    -0.08500
C1328       C  0.92292674  0.17860919  0.47600816    -0.05900
C1329       C  0.89021582  0.15417688  0.00321764     0.00100
C1330       C  0.89018472  0.13011416  0.02851049    -0.08400
C1331       C  0.86477853  0.11076742  0.06342515     0.62000
H1332       H  0.91485902  0.10544489  0.04126405     0.12700
H1333       H  0.92287230  0.19728545  0.45729457     0.12700
C1334       C  0.98281321  0.20837873  0.46279379     0.62200
F1335       F  0.87908451  0.10971036  0.09973413    -0.22900
F1336       F  0.84899958  0.08010922  0.54087349    -0.20300
F1337       F  0.84676468  0.12486635  0.07567871    -0.19900
F1338       F  0.99328058  0.20018465  0.42489270    -0.20000
F1339       F  0.50317983  0.21643821  0.99740395    -0.20300
F1340       F  0.97852609  0.23414251  0.45414469    -0.23000
C1341       C  0.86114270  0.15706521  0.00006264     0.03100
C1342       C  0.86704960  0.18815746  0.50334207    -0.13100
C1343       C  0.83998463  0.19130810  0.50423147     0.00600
C1344       C  0.80997734  0.16349413  0.49885452    -0.11600
C1345       C  0.80295114  0.13165481  0.99284940     0.03100
C1346       C  0.83111920  0.12973984  0.99087142    -0.11000
H1347       H  0.89004839  0.20935750  0.50961407     0.08700
H1348       H  0.78934882  0.16643577  0.50194051     0.06200
H1349       H  0.83046479  0.10756432  0.98160143     0.06000
C1350       C  0.67266791  0.37133808  0.49657600     0.03100
C1351       C  0.64412976  0.34093011  0.50008022    -0.13100
C1352       C  0.64463934  0.31234177  0.50689374     0.00600
C1353       C  0.67392077  0.31394464  0.51047990    -0.11600
C1354       C  0.70297979  0.34368540  0.50622507     0.03100
C1355       C  0.70218025  0.37231374  0.49791632    -0.11000
H1356       H  0.62137277  0.33947249  0.49725530     0.08700
H1357       H  0.67395231  0.29172069  0.51655839     0.06200
H1358       H  0.72442653  0.39513339  0.49275144     0.06000
C1359       C  0.87585532  0.37038185  0.55415224     0.86400
C1360       C  0.84073009  0.36152202  0.55709231    -0.53800
C1361       C  0.82331591  0.34513865  0.52236073     0.09400
C1362       C  0.84454276  0.34024267  0.98529045     0.20300
C1363       C  0.87510217  0.33846384  0.54607553    -0.54500
C1364       C  0.85802129  0.32109833  0.51232432     0.09500
C1365       C  0.88857668  0.38882369  0.51096454    -0.54100
C1366       C  0.87396930  0.37406094  0.97453305     0.10000
H1367       H  0.83117230  0.36954801  0.58382447     0.14600
H1368       H  0.83262433  0.32719752  0.95630146     0.00300
H1369       H  0.88622113  0.32957373  0.56657964     0.14900
H1370       H  0.90814233  0.41372231  0.50729898     0.14600
C1371       C  0.00627455  0.13072564  0.55769039     0.86400
C1372       C  0.53586047  0.16487286  0.55160105    -0.53800
C1373       C  0.53802529  0.17986696  0.51382878     0.09400
C1374       C  0.00549295  0.15610484  0.98834261     0.20300
C1375       C  0.97937637  0.13792829  0.55292428    -0.54500
C1376       C  0.97961373  0.15079457  0.51406072     0.09500
C1377       C  0.00645457  0.11138192  0.51799894    -0.54100
C1378       C  0.00574279  0.12393279  0.98275376     0.10000
H1379       H  0.55284572  0.17770380  0.57599287     0.14600
H1380       H  0.50619694  0.16708870  0.95870550     0.00300
H1381       H  0.96155307  0.13340752  0.57858244     0.14900
H1382       H  0.00473152  0.08782627  0.51993402     0.14600
C1383       C  0.62272345  0.50550883  0.53391538     0.86400
C1384       C  0.62804187  0.47617279  0.52981660    -0.53800
C1385       C  0.64366161  0.47499099  0.49252056     0.09400
C1386       C  0.64983936  0.50157259  0.96683736     0.20300
C1387       C  0.65615216  0.03566041  0.52802461    -0.54500
C1388       C  0.67125378  0.03450600  0.49027196     0.09500
C1389       C  0.60441260  0.50160542  0.49389600    -0.54100
C1390       C  0.61769887  0.49954873  0.95907374     0.10000
H1391       H  0.61999155  0.45714541  0.55361299     0.14600
H1392       H  0.66381633  0.50063716  0.93821638     0.00300
H1393       H  0.66763825  0.05528343  0.55104983     0.14900
H1394       H  0.58092400  0.49907288  0.49608415     0.14600
O1395       O  0.97571173  0.45119279  0.70142429    -0.85400
O1396       O  0.53783595  0.47818611  0.71973589    -0.82400
C1397       C  0.55099987  0.00303696  0.69716114     0.98100
O1398       O  0.54805471  0.02734859  0.70571751    -0.82500
O1399       O  0.52122388  0.06347965  0.73287625    -0.85100
C1400       C  0.49960670  0.05449752  0.70654530     1.02600
O1401       O  0.97587772  0.02664229  0.70988590    -0.77900
O1402       O  0.93741033  0.45961714  0.72617530    -0.78100
C1403       C  0.94888718  0.44824774  0.69778002     1.02500
O1404       O  0.95406068  0.43487915  0.79086280    -0.85400
O1405       O  0.51682572  0.46732203  0.80964689    -0.82500
C1406       C  0.54314336  0.99099099  0.81711169     0.98100
O1407       O  0.55567898  0.01601655  0.79321304    -0.82500
O1408       O  0.52301750  0.04676968  0.81991683    -0.85100
C1409       C  0.50025313  0.05203355  0.82720509     1.02600
O1410       O  0.97920050  0.04105342  0.80087831    -0.77900
O1411       O  0.94621898  0.47360991  0.81630371    -0.78100
C1412       C  0.94103070  0.44498790  0.81890529     1.02500
Cr1413     Cr  0.99613777  0.46051214  0.75594137     1.93700
Cr1414     Cr  0.53433294  0.03575501  0.76285027     1.93200
Cr1415     Cr  0.96169987  0.49930305  0.76320448     1.39100
O1416       O  0.49752571  0.49838171  0.76032820    -1.23100
C1417       C  0.60747129  0.99249838  0.61593834    -0.05800
C1418       C  0.60652506  0.50813465  0.57712808     0.00100
C1419       C  0.59112608  0.52686740  0.58320929    -0.08500
C1420       C  0.57280804  0.52320788  0.62166448    -0.05900
C1421       C  0.57054816  0.00401557  0.65789022     0.00100
C1422       C  0.58942129  0.98917619  0.65461136    -0.08400
C1423       C  0.59087486  0.97007973  0.69154754     0.62000
H1424       H  0.62299941  0.98254021  0.61461132     0.12700
H1425       H  0.55944809  0.53576536  0.62492850     0.12700
C1426       C  0.59256826  0.55115408  0.55142922     0.62200
F1427       F  0.61394795  0.46060968  0.68070157    -0.22900
F1428       F  0.56245018  0.44274194  0.69832230    -0.20300
F1429       F  0.59899836  0.98896264  0.72829949    -0.19900
F1430       F  0.56387511  0.53734729  0.53179386    -0.20000
F1431       F  0.61753504  0.06234668  0.52385834    -0.20300
F1432       F  0.59730444  0.07953029  0.57676132    -0.23000
C1433       C  0.59516941  0.00704109  0.84628496    -0.05800
C1434       C  0.56298601  0.48867263  0.85022038     0.00100
C1435       C  0.54841448  0.46931174  0.88768067    -0.08500
C1436       C  0.56813553  0.47120829  0.91976668    -0.05900
C1437       C  0.60147729  0.49287091  0.91743703     0.00100
C1438       C  0.61498878  0.00895305  0.87847929    -0.08400
C1439       C  0.65091986  0.02865631  0.86912233     0.62000
H1440       H  0.60584109  0.02007403  0.81641245     0.12700
H1441       H  0.55727721  0.45647744  0.94836403     0.12700
C1442       C  0.51227390  0.44772297  0.89531421     0.62200
F1443       F  0.66045485  0.54834388  0.83220812    -0.22900
F1444       F  0.66492352  0.51030492  0.86530269    -0.20300
F1445       F  0.66537961  0.04995609  0.90197156    -0.19900
F1446       F  0.50071991  0.42232289  0.86617512    -0.20000
F1447       F  0.49768131  0.96922111  0.89335371    -0.20300
F1448       F  0.50252055  0.93736542  0.93924037    -0.23000
C1449       C  0.52365282  0.07773599  0.89582305    -0.05800
C1450       C  0.50093833  0.07188426  0.86589744     0.00100
C1451       C  0.98181307  0.08528764  0.87310065    -0.08500
C1452       C  0.98485673  0.10334997  0.91113751    -0.05900
C1453       C  0.00764935  0.10915457  0.94076357     0.00100
C1454       C  0.52771527  0.09665749  0.93271334    -0.08400
C1455       C  0.55508695  0.10259912  0.95984474     0.62000
H1456       H  0.53908359  0.06760439  0.89030167     0.12700
H1457       H  0.96859209  0.11220673  0.91888610     0.12700
C1458       C  0.95667029  0.08024688  0.84250590     0.62200
F1459       F  0.58258219  0.11281202  0.93358881    -0.22900
F1460       F  0.54654701  0.07257490  0.48062925    -0.20300
F1461       F  0.56225541  0.12613484  0.99101854    -0.19900
F1462       F  0.93420437  0.04740984  0.83958410    -0.20000
F1463       F  0.97111167  0.09230653  0.80238100    -0.20300
F1464       F  0.94058978  0.09621570  0.85615641    -0.23000
C1465       C  0.53119371  0.11970207  0.61866475    -0.05800
C1466       C  0.00348203  0.11186950  0.59849539     0.00100
C1467       C  0.97453176  0.08337991  0.61369097    -0.08500
C1468       C  0.97501411  0.06768446  0.65064537    -0.05900
C1469       C  0.50231589  0.07626299  0.67121052     0.00100
C1470       C  0.53167756  0.10257483  0.65414842    -0.08400
C1471       C  0.56377421  0.11220687  0.67169255     0.62000
H1472       H  0.55381824  0.13828338  0.60460969     0.12700
H1473       H  0.95267699  0.04758056  0.66379046     0.12700
C1474       C  0.94232080  0.06806511  0.59308906     0.62200
F1475       F  0.58922352  0.13739792  0.64862828    -0.22900
F1476       F  0.56839762  0.08595639  0.66958591    -0.20300
F1477       F  0.56464476  0.12250857  0.71372726    -0.19900
F1478       F  0.94543940  0.07110022  0.54905642    -0.20000
F1479       F  0.92515960  0.08199812  0.61019507    -0.20300
F1480       F  0.92431835  0.03489800  0.60140299    -0.23000
C1481       C  0.88867616  0.37330764  0.89651492    -0.05800
C1482       C  0.88383365  0.38996572  0.93132786     0.00100
C1483       C  0.89326727  0.42317192  0.92591998    -0.08500
C1484       C  0.91209488  0.43976106  0.88924221    -0.05900
C1485       C  0.91966654  0.42402268  0.85559826     0.00100
C1486       C  0.90626545  0.38964470  0.85837998    -0.08400
C1487       C  0.91031548  0.37004160  0.82182479     0.62000
H1488       H  0.87975453  0.34756939  0.90008124     0.12700
H1489       H  0.92088161  0.46564850  0.88710544     0.12700
C1490       C  0.88393732  0.44226628  0.95752131     0.62200
F1491       F  0.89232114  0.33685837  0.82973768    -0.22900
F1492       F  0.94204103  0.37849553  0.81615404    -0.20300
F1493       F  0.90036502  0.37597506  0.78445833    -0.19900
F1494       F  0.90341839  0.46249249  0.47868437    -0.20000
F1495       F  0.85429516  0.41822980  0.48901418    -0.20300
F1496       F  0.87392161  0.45983758  0.93544936    -0.23000
C1497       C  0.89957404  0.40317361  0.66950211    -0.05800
C1498       C  0.93040034  0.42966777  0.66114818     0.00100
C1499       C  0.94426425  0.43570205  0.61885727    -0.08500
C1500       C  0.92656529  0.41461058  0.58622328    -0.05900
C1501       C  0.89471423  0.38876249  0.59343320     0.00100
C1502       C  0.88202546  0.38136334  0.63701705    -0.08400
C1503       C  0.85107642  0.35089135  0.65226064     0.62000
H1504       H  0.88981999  0.39842568  0.70244968     0.12700
H1505       H  0.93854962  0.41793018  0.55496010     0.12700
C1506       C  0.97742293  0.46472523  0.60772474     0.62200
F1507       F  0.85573861  0.33933369  0.68955409    -0.22900
F1508       F  0.84045742  0.32562089  0.62317137    -0.20300
F1509       F  0.82751011  0.35861931  0.66119424    -0.19900
F1510       F  0.00050573  0.45962563  0.62300384    -0.20000
F1511       F  0.98005111  0.49283442  0.62572097    -0.20300
F1512       F  0.98347540  0.46964198  0.56384185    -0.23000
C1513       C  0.56629490  0.23637543  0.54151395    -0.05800
C1514       C  0.56275486  0.21508841  0.50711182     0.00100
C1515       C  0.58078725  0.22475076  0.97290604    -0.08500
C1516       C  0.60713903  0.25692506  0.97331854    -0.05900
C1517       C  0.61487486  0.28004407  0.50720654     0.00100
C1518       C  0.59215927  0.26860280  0.54246966    -0.08400
C1519       C  0.59587777  0.28976532  0.58163440     0.62000
H1520       H  0.54889565  0.22708211  0.56853515     0.12700
H1521       H  0.62367075  0.26664696  0.94545514     0.12700
C1522       C  0.57636414  0.20424897  0.93296765     0.62200
F1523       F  0.57220133  0.27299226  0.61349419    -0.22900
F1524       F  0.59404773  0.31649145  0.57032575    -0.20300
F1525       F  0.62515616  0.30030647  0.59850591    -0.19900
F1526       F  0.55036757  0.20006287  0.91221243    -0.20000
F1527       F  0.57179742  0.17434741  0.94364532    -0.20300
F1528       F  0.60285279  0.21884642  0.90438016    -0.23000
C1529       C  0.67406468  0.45155466  0.51889378    -0.05800
C1530       C  0.65477495  0.45107019  0.48728510     0.00100
C1531       C  0.64067062  0.42442363  0.96143973    -0.08500
C1532       C  0.64904713  0.40015505  0.96353141    -0.05900
C1533       C  0.67038834  0.40131255  0.49164389     0.00100
C1534       C  0.68111744  0.42667260  0.52272079    -0.08400
C1535       C  0.69824995  0.42688209  0.56146046     0.62000
H1536       H  0.68225074  0.47106254  0.54228560     0.12700
H1537       H  0.64210598  0.38170136  0.93877655     0.12700
C1538       C  0.61998895  0.42293030  0.92618527     0.62200
F1539       F  0.70158196  0.45060159  0.59094315    -0.22900
F1540       F  0.72847853  0.43338747  0.54830875    -0.20300
F1541       F  0.68115823  0.39709128  0.58210152    -0.19900
F1542       F  0.63702726  0.44960883  0.89959678    -0.20000
F1543       F  0.59301206  0.42251848  0.94400130    -0.20300
F1544       F  0.61001461  0.39522849  0.90121296    -0.23000
C1545       C  0.73768899  0.32157625  0.98846658    -0.05800
C1546       C  0.73375288  0.34410511  0.51050304     0.00100
C1547       C  0.75810159  0.36660413  0.53675292    -0.08500
C1548       C  0.78758166  0.36813766  0.53432939    -0.05900
C1549       C  0.79184808  0.34320507  0.51571560     0.00100
C1550       C  0.76621638  0.32057965  0.99038081    -0.08400
C1551       C  0.76723791  0.29207397  0.96908035     0.62000
H1552       H  0.71874642  0.30359222  0.96941719     0.12700
H1553       H  0.80685681  0.38844084  0.55027939     0.12700
C1554       C  0.75392604  0.38721677  0.57146646     0.62200
F1555       F  0.73673194  0.26600023  0.96346142    -0.22900
F1556       F  0.78224633  0.28112958  0.99404165    -0.20300
F1557       F  0.78292919  0.30138224  0.92903470    -0.19900
F1558       F  0.72242647  0.37840952  0.57991865    -0.20000
F1559       F  0.77200220  0.41966584  0.55976303    -0.20300
F1560       F  0.76472864  0.38315469  0.60936263    -0.23000
C1561       C  0.74810224  0.10989187  0.96692494    -0.05800
C1562       C  0.77295736  0.10405235  0.48153206     0.00100
C1563       C  0.75998661  0.07122730  0.49625963    -0.08500
C1564       C  0.72704082  0.04869879  0.49292842    -0.05900
C1565       C  0.70579481  0.05822594  0.48128563     0.00100
C1566       C  0.71815045  0.09079129  0.46805768    -0.08400
C1567       C  0.69810942  0.10607187  0.46054013     0.62000
H1568       H  0.75697041  0.13354095  0.95253706     0.12700
H1569       H  0.71692220  0.02368551  0.50315616     0.12700
C1570       C  0.77897703  0.05960448  0.51876387     0.62200
F1571       F  0.70500568  0.11868805  0.41941275    -0.22900
F1572       F  0.70584962  0.13128658  0.48945339    -0.20300
F1573       F  0.66216997  0.08236749  0.96821677    -0.19900
F1574       F  0.79512578  0.08127455  0.55080015    -0.20000
F1575       F  0.79621000  0.05471230  0.99609377    -0.20300
F1576       F  0.75576793  0.02897134  0.04459619    -0.23000
C1577       C  0.86182469  0.24686825  0.97614448    -0.05800
C1578       C  0.84362522  0.22427029  0.50720576     0.00100
C1579       C  0.82559765  0.23258675  0.53701917    -0.08500
C1580       C  0.82916698  0.26366399  0.53433480    -0.05900
C1581       C  0.85173876  0.28748729  0.50548267     0.00100
C1582       C  0.86864754  0.27932497  0.97642472    -0.08400
C1583       C  0.89687956  0.30310467  0.94755077     0.62000
H1584       H  0.87475382  0.23976993  0.95293963     0.12700
H1585       H  0.81548612  0.27021744  0.55697535     0.12700
C1586       C  0.80338740  0.21033660  0.57306748     0.62200
F1587       F  0.92295364  0.29975802  0.95382042    -0.23700
F1588       F  0.90669354  0.33601000  0.45591513    -0.20300
F1589       F  0.88921112  0.29604390  0.90520563    -0.19900
F1590       F  0.81009702  0.18649894  0.58292464    -0.20000
F1591       F  0.77459764  0.18925564  0.06460223    -0.20300
F1592       F  0.80649423  0.22828836  0.61007498    -0.23000
C1593       C  0.92118576  0.12815537  0.51948796    -0.05800
C1594       C  0.95105741  0.15288111  0.50240570     0.00100
C1595       C  0.94798903  0.17690107  0.98551346    -0.08500
C1596       C  0.91914407  0.17687383  0.98152907    -0.05900
C1597       C  0.89394091  0.15531325  0.49710375     0.00100
C1598       C  0.89410291  0.13123741  0.52207813    -0.08400
C1599       C  0.86841018  0.11115871  0.55628616     0.62000
H1600       H  0.91950519  0.10744159  0.53529394     0.12700
H1601       H  0.91927083  0.19548876  0.96245373     0.12700
C1602       C  0.97881401  0.20596619  0.96774387     0.62200
F1603       F  0.88225039  0.10890639  0.59235800    -0.22900
F1604       F  0.84538865  0.07924606  0.04945794    -0.20300
F1605       F  0.85056306  0.12526154  0.56949163    -0.19900
F1606       F  0.98833969  0.19790220  0.92896754    -0.20000
F1607       F  0.50579946  0.21956262  0.49297272    -0.20300
F1608       F  0.97493811  0.23222393  0.96066680    -0.23000
C1609       C  0.86388672  0.65856574  0.49658720     0.03100
C1610       C  0.86442682  0.68790524  0.00653312    -0.13100
C1611       C  0.83750249  0.69128948  0.00626485     0.00600
C1612       C  0.80739386  0.66333865  0.00186380    -0.11600
C1613       C  0.80587577  0.63339321  0.48878436     0.03100
C1614       C  0.83409579  0.63156593  0.48595818    -0.11000
H1615       H  0.88753297  0.70920825  0.01199936     0.08700
H1616       H  0.78688758  0.66640653  0.00332434     0.06200
H1617       H  0.83362162  0.60976812  0.47504987     0.06000
C1618       C  0.66879118  0.86863202  0.00005084     0.03100
C1619       C  0.64123454  0.83752170  0.00191612    -0.13100
C1620       C  0.64339167  0.80966528  0.00654966     0.00600
C1621       C  0.67348329  0.81282330  0.00943426    -0.11600
C1622       C  0.70179476  0.84360616  0.00675706     0.03100
C1623       C  0.69909234  0.87145448  0.00097530    -0.11000
H1624       H  0.61790702  0.83497931  0.00009437     0.08700
H1625       H  0.67469284  0.79107750  0.01407389     0.06200
H1626       H  0.72035750  0.89523325  0.99708621     0.06000
C1627       C  0.87617980  0.87181663  0.05218510     0.86400
C1628       C  0.84162214  0.86460321  0.05287500    -0.53800
C1629       C  0.82486416  0.84877736  0.01742761     0.09400
C1630       C  0.84295449  0.83833571  0.48856616     0.20300
C1631       C  0.87417052  0.83926241  0.04491811    -0.54500
C1632       C  0.85788946  0.82246451  0.01039682     0.09500
C1633       C  0.89093929  0.89036587  0.00940652    -0.54100
C1634       C  0.87111640  0.87250153  0.47684495     0.10000
H1635       H  0.83179288  0.87262138  0.07938659     0.14600
H1636       H  0.83040766  0.82464801  0.46014772     0.00300
H1637       H  0.88391540  0.82956181  0.06651990     0.14900
H1638       H  0.91126138  0.91486124  0.00644617     0.14600
C1639       C  0.00299795  0.62807994  0.05968777     0.86400
C1640       C  0.53314493  0.66251948  0.05253106    -0.53800
C1641       C  0.53475773  0.67759253  0.01509228     0.09400
C1642       C  0.00750054  0.65689210  0.48695265     0.20300
C1643       C  0.97574902  0.63469615  0.05519951    -0.54500
C1644       C  0.97571011  0.64775046  0.01670316     0.09500
C1645       C  0.00368955  0.60910920  0.01970644    -0.54100
C1646       C  0.00639104  0.62401768  0.48316815     0.10000
H1647       H  0.55143930  0.67544044  0.07512507     0.14600
H1648       H  0.50908829  0.66790226  0.45495895     0.00300
H1649       H  0.95771568  0.62926867  0.08100750     0.14900
H1650       H  0.00289065  0.58597823  0.02134334     0.14600
C1651       C  0.61898471  0.00364625  0.03761900     0.86400
C1652       C  0.62396729  0.97413683  0.03443744    -0.53800
C1653       C  0.64005328  0.97269906  0.99779618     0.09400
C1654       C  0.65154874  0.00312606  0.46393110     0.20300
C1655       C  0.65270740  0.53406590  0.03034440    -0.54500
C1656       C  0.66872281  0.53305083  0.99343917     0.09500
C1657       C  0.60140238  0.99978539  0.99701032    -0.54100
C1658       C  0.61927968  0.00129592  0.45784672     0.10000
H1659       H  0.61520532  0.95518449  0.05855301     0.14600
H1660       H  0.66480251  0.00194312  0.43464364     0.00300
H1661       H  0.66348579  0.55375801  0.05344577     0.14900
H1662       H  0.57803074  0.99745927  0.99836312     0.14600
O1663       O  0.97152343  0.94779639  0.20428551    -0.85400
O1664       O  0.53363984  0.97487045  0.22265825    -0.82400
C1665       C  0.54603785  0.49984829  0.19700846     0.98100
O1666       O  0.54271214  0.52393571  0.20536057    -0.82500
O1667       O  0.51655964  0.56002418  0.23483268    -0.85100
C1668       C  0.49456159  0.55126373  0.20921428     1.02600
O1669       O  0.96983521  0.52346099  0.21355442    -0.77900
O1670       O  0.93352813  0.95690682  0.22873602    -0.78100
C1671       C  0.94503534  0.94554231  0.20033320     1.02500
O1672       O  0.95041028  0.93191527  0.29344603    -0.85400
O1673       O  0.51347527  0.96473425  0.31301459    -0.82500
C1674       C  0.54088089  0.48825029  0.31656519     0.98100
O1675       O  0.55274199  0.51281695  0.29186550    -0.82500
O1676       O  0.52045562  0.54342698  0.32069390    -0.85100
C1677       C  0.49806418  0.54912872  0.32860847     1.02600
O1678       O  0.97439319  0.53728753  0.30482183    -0.77900
O1679       O  0.94290748  0.97079668  0.31897982    -0.78100
C1680       C  0.93735455  0.94204201  0.32134989     1.02500
Cr1681     Cr  0.99230852  0.95740842  0.25829440     1.93700
Cr1682     Cr  0.53045914  0.53240405  0.26319100     1.93200
Cr1683     Cr  0.95801626  0.99648855  0.26590863     1.39100
O1684       O  0.49352973  0.99518485  0.26347450    -1.23100
C1685       C  0.60467196  0.49209924  0.11724687    -0.05800
C1686       C  0.60232370  0.00610504  0.08023878     0.00100
C1687       C  0.58466582  0.02259332  0.08517371    -0.08500
C1688       C  0.56574492  0.01792450  0.12320719    -0.05900
C1689       C  0.56565253  0.50111413  0.15784271     0.00100
C1690       C  0.58630110  0.48836500  0.15566046    -0.08400
C1691       C  0.58939903  0.47124916  0.19363325     0.62000
H1692       H  0.62140915  0.48359903  0.11647354     0.12700
H1693       H  0.55082060  0.02879819  0.12585133     0.12700
C1694       C  0.58519225  0.04636670  0.05334273     0.62200
F1695       F  0.61461107  0.96412560  0.18608370    -0.22900
F1696       F  0.56217370  0.94194293  0.20216144    -0.20300
F1697       F  0.59611315  0.49080519  0.22969214    -0.19900
F1698       F  0.55666697  0.03157966  0.03311128    -0.20000
F1699       F  0.61066895  0.55845486  0.02293241    -0.20300
F1700       F  0.58849373  0.57438551  0.07480708    -0.23000
C1701       C  0.59404861  0.50659331  0.34391377    -0.05800
C1702       C  0.56114162  0.98668234  0.35120343     0.00100
C1703       C  0.54796623  0.96712976  0.38875921    -0.08500
C1704       C  0.56866687  0.97105837  0.42070483    -0.05900
C1705       C  0.60181272  0.99367219  0.41710123     0.00100
C1706       C  0.61499740  0.50947383  0.37504312    -0.08400
C1707       C  0.65069179  0.52991645  0.36413108     0.62000
H1708       H  0.60374313  0.52018405  0.31425962     0.12700
H1709       H  0.55879694  0.95689384  0.44990921     0.12700
C1710       C  0.51233234  0.94276158  0.39624541     0.62200
F1711       F  0.65804492  0.04755565  0.32846073    -0.22900
F1712       F  0.66414727  0.01097929  0.36250127    -0.20300
F1713       F  0.66538898  0.55251308  0.39565551    -0.19900
F1714       F  0.50264973  0.91863836  0.36531595    -0.20000
F1715       F  0.49483693  0.45776586  0.39438442    -0.20300
F1716       F  0.50503345  0.42604310  0.43332218    -0.23000
C1717       C  0.52235666  0.57476787  0.39657139    -0.05800
C1718       C  0.50021073  0.57007222  0.36635570     0.00100
C1719       C  0.98187265  0.58579301  0.37367706    -0.08500
C1720       C  0.98610481  0.60464679  0.41112634    -0.05900
C1721       C  0.00726501  0.60793098  0.44193589     0.00100
C1722       C  0.52775770  0.59483342  0.43249603    -0.08400
C1723       C  0.55422301  0.59932988  0.46041331     0.62000
H1724       H  0.53615924  0.56274300  0.39204771     0.12700
H1725       H  0.97190898  0.61606792  0.41747717     0.12700
C1726       C  0.95876736  0.58362134  0.34157239     0.62200
F1727       F  0.58108701  0.60577303  0.43467297    -0.22900
F1728       F  0.54827340  0.57389662  0.97830534    -0.20300
F1729       F  0.56360433  0.62477414  0.48916605    -0.19900
F1730       F  0.93334296  0.55194917  0.33978036    -0.20000
F1731       F  0.97433438  0.59323300  0.30142721    -0.20300
F1732       F  0.94645275  0.60355703  0.35273985    -0.23000
C1733       C  0.52430314  0.62169691  0.12938851    -0.05800
C1734       C  0.99918889  0.60899867  0.10090573     0.00100
C1735       C  0.97109961  0.57820341  0.11184883    -0.08500
C1736       C  0.97058110  0.56185426  0.14881890    -0.05900
C1737       C  0.49699508  0.57314591  0.17407355     0.00100
C1738       C  0.52358648  0.60487086  0.16596050    -0.08400
C1739       C  0.55140337  0.62143538  0.19529561     0.62000
H1740       H  0.54551986  0.64477617  0.12312750     0.12700
H1741       H  0.94905154  0.53909265  0.15757458     0.12700
C1742       C  0.93986241  0.56196567  0.08850084     0.62200
F1743       F  0.57331362  0.65321212  0.18294178    -0.22900
F1744       F  0.56754421  0.60451587  0.19455260    -0.20300
F1745       F  0.54006984  0.62260974  0.23673416    -0.19900
F1746       F  0.94392369  0.56813318  0.04513315    -0.20000
F1747       F  0.91989483  0.57226051  0.10689898    -0.20300
F1748       F  0.92427061  0.52836279  0.09251487    -0.23000
C1749       C  0.88571577  0.87066794  0.39943659    -0.05800
C1750       C  0.87968526  0.88725950  0.43318357     0.00100
C1751       C  0.88726208  0.91968978  0.42642698    -0.08500
C1752       C  0.90593281  0.93618920  0.38965444    -0.05900
C1753       C  0.91546494  0.92092773  0.35753803     0.00100
C1754       C  0.90358236  0.88686196  0.36146524    -0.08400
C1755       C  0.90985080  0.86748381  0.32666909     0.62000
H1756       H  0.87778694  0.84524355  0.40397645     0.12700
H1757       H  0.91318137  0.96163723  0.38640330     0.12700
C1758       C  0.87600294  0.93794361  0.45657241     0.62200
F1759       F  0.89343896  0.83445929  0.33579002    -0.22900
F1760       F  0.94211762  0.87789238  0.32277535    -0.20300
F1761       F  0.89992512  0.87146768  0.28802387    -0.19900
F1762       F  0.91049877  0.96433381  0.98025634    -0.20000
F1763       F  0.85952566  0.92254204  0.98677930    -0.20300
F1764       F  0.86276654  0.95179083  0.43316948    -0.23000
C1765       C  0.89634146  0.90167106  0.16926983    -0.05800
C1766       C  0.92731822  0.92823972  0.16270754     0.00100
C1767       C  0.94237264  0.93526979  0.12109809    -0.08500
C1768       C  0.92576111  0.91501231  0.08732535    -0.05900
C1769       C  0.89376699  0.88916934  0.09260670     0.00100
C1770       C  0.87973008  0.88079396  0.13552330    -0.08400
C1771       C  0.84832428  0.85025910  0.14927338     0.62000
H1772       H  0.88573029  0.89599682  0.20178530     0.12700
H1773       H  0.93889970  0.91885203  0.05688819     0.12700
C1774       C  0.97609602  0.96388565  0.11196010     0.62200
F1775       F  0.85319824  0.83588198  0.18348082    -0.22900
F1776       F  0.83573254  0.82674151  0.11796129    -0.20300
F1777       F  0.82604224  0.85899770  0.16256020    -0.19900
F1778       F  0.99799839  0.95640136  0.12565653    -0.20000
F1779       F  0.97982876  0.99153641  0.13288253    -0.20300
F1780       F  0.98274505  0.97107004  0.06857568    -0.23000
C1781       C  0.56599347  0.73366161  0.04357734    -0.05800
C1782       C  0.56025166  0.71271844  0.00802740     0.00100
C1783       C  0.58317909  0.72574266  0.46933274    -0.08500
C1784       C  0.60905067  0.75813778  0.46947822    -0.05900
C1785       C  0.61406200  0.77693014  0.00778765     0.00100
C1786       C  0.59285235  0.76524008  0.04453437    -0.08400
C1787       C  0.59910994  0.78557701  0.08512906     0.62000
H1788       H  0.54946803  0.72460108  0.07152140     0.12700
H1789       H  0.62618746  0.76756795  0.44218122     0.12700
C1790       C  0.57985735  0.70456940  0.43040711     0.62200
F1791       F  0.57799684  0.76785676  0.11898793    -0.22900
F1792       F  0.59578871  0.81208920  0.07791820    -0.20300
F1793       F  0.62978295  0.79645726  0.09726244    -0.19900
F1794       F  0.55402850  0.69927977  0.40822374    -0.20000
F1795       F  0.57572599  0.67514614  0.44279490    -0.20300
F1796       F  0.60675396  0.71914846  0.40249360    -0.23000
C1797       C  0.66725987  0.94665415  0.02686805    -0.05800
C1798       C  0.65023233  0.94800698  0.99334058     0.00100
C1799       C  0.64170547  0.92557651  0.45832952    -0.08500
C1800       C  0.65032907  0.90144733  0.45966972    -0.05900
C1801       C  0.66493980  0.89767474  0.99743586     0.00100
C1802       C  0.67339917  0.92115659  0.03074012    -0.08400
C1803       C  0.68770790  0.91929248  0.07137465     0.62000
H1804       H  0.67463358  0.96530312  0.05145188     0.12700
H1805       H  0.64211440  0.88234550  0.43571301     0.12700
C1806       C  0.61902735  0.92314141  0.42546296     0.62200
F1807       F  0.68321153  0.93690413  0.10441434    -0.22900
F1808       F  0.72011319  0.93235726  0.06340969    -0.20300
F1809       F  0.67364584  0.88743139  0.08535110    -0.19900
F1810       F  0.63449891  0.94933122  0.39777205    -0.20000
F1811       F  0.59285634  0.92289986  0.44602830    -0.20300
F1812       F  0.60789538  0.89493310  0.40130880    -0.23000
C1813       C  0.73796938  0.82060133  0.48732012    -0.05800
C1814       C  0.73371224  0.84576800  0.00896119     0.00100
C1815       C  0.75891940  0.86955502  0.03317951    -0.08500
C1816       C  0.78862169  0.87132992  0.02987885    -0.05900
C1817       C  0.79324461  0.84678039  0.01047562     0.00100
C1818       C  0.76546414  0.81828245  0.49252066    -0.08400
C1819       C  0.76536122  0.78830189  0.47452315     0.62000
H1820       H  0.71959505  0.80298306  0.46720766     0.12700
H1821       H  0.80831242  0.89211577  0.04451234     0.12700
C1822       C  0.75558584  0.89263201  0.06464381     0.62200
F1823       F  0.73438748  0.76212471  0.47304419    -0.22900
F1824       F  0.78142976  0.77899409  0.49999346    -0.20300
F1825       F  0.77917211  0.79450169  0.43323129    -0.19900
F1826       F  0.72448775  0.87953683  0.08132205    -0.20000
F1827       F  0.76583030  0.92187729  0.04427009    -0.20300
F1828       F  0.77433973  0.89871339  0.09915730    -0.23000
C1829       C  0.75129085  0.61205125  0.46247605    -0.05800
C1830       C  0.77027345  0.60335482  0.98708169     0.00100
C1831       C  0.75719748  0.57097490  0.00357613    -0.08500
C1832       C  0.72448073  0.54805642  0.99917929    -0.05900
C1833       C  0.70332127  0.55710392  0.98566284     0.00100
C1834       C  0.71572153  0.58951891  0.97159032    -0.08400
C1835       C  0.69584604  0.60482538  0.96318095     0.62000
H1836       H  0.76025547  0.63597194  0.44885448     0.12700
H1837       H  0.71439004  0.52321619  0.01019143     0.12700
C1838       C  0.77565462  0.56033138  0.02919598     0.62200
F1839       F  0.70183218  0.61568048  0.92120309    -0.22900
F1840       F  0.70470616  0.63135440  0.99012919    -0.20300
F1841       F  0.66533132  0.58416580  0.46240385    -0.19900
F1842       F  0.79165036  0.58339890  0.05997272    -0.20000
F1843       F  0.79994965  0.55763361  0.49350145    -0.20300
F1844       F  0.75876388  0.53129822  0.54074740    -0.23000
C1845       C  0.86552378  0.74870167  0.47942571    -0.05800
C1846       C  0.84135194  0.72447287  0.00741073     0.00100
C1847       C  0.82410590  0.73377692  0.03719127    -0.08500
C1848       C  0.82817561  0.76508662  0.03364631    -0.05900
C1849       C  0.85082374  0.78838192  0.00418729     0.00100
C1850       C  0.87125634  0.78068367  0.47960057    -0.08400
C1851       C  0.89921901  0.80509708  0.45091581     0.62000
H1852       H  0.87962348  0.74249732  0.45705179     0.12700
H1853       H  0.81478177  0.77227755  0.05583261     0.12700
C1854       C  0.80296187  0.71216535  0.07442403     0.62200
F1855       F  0.92605663  0.80328380  0.45782711    -0.23700
F1856       F  0.90739348  0.83591405  0.95627338    -0.20300
F1857       F  0.89190716  0.79741627  0.40853694    -0.19900
F1858       F  0.81469636  0.69348199  0.08916772    -0.20000
F1859       F  0.77067879  0.69717684  0.56123259    -0.20300
F1860       F  0.80167720  0.73077896  0.10862379    -0.23000
C1861       C  0.91733338  0.62622919  0.02406165    -0.05800
C1862       C  0.94724625  0.65041895  0.00616547     0.00100
C1863       C  0.95061362  0.67855367  0.48231532    -0.08500
C1864       C  0.92174058  0.67835282  0.47792875    -0.05900
C1865       C  0.89084794  0.65442093  0.00263018     0.00100
C1866       C  0.89083952  0.63034163  0.02782285    -0.08400
C1867       C  0.86607261  0.61176950  0.06376224     0.62000
H1868       H  0.91531217  0.60535358  0.03988261     0.12700
H1869       H  0.92178109  0.69680088  0.45858566     0.12700
C1870       C  0.98150277  0.70732028  0.46413031     0.62200
F1871       F  0.88117044  0.61164805  0.09974718    -0.22900
F1872       F  0.84825309  0.58133308  0.54792436    -0.20300
F1873       F  0.84824070  0.62606816  0.07594292    -0.19900
F1874       F  0.99148972  0.69846656  0.42637357    -0.20000
F1875       F  0.50309142  0.71660351  0.99875411    -0.20300
F1876       F  0.97757822  0.73324038  0.45503332    -0.23000
C1877       C  0.86182969  0.65740363  0.00000562     0.03100
C1878       C  0.86615463  0.68861462  0.50534518    -0.13100
C1879       C  0.83921391  0.69188343  0.50511213     0.00600
C1880       C  0.80932075  0.66422508  0.49845796    -0.11600
C1881       C  0.80361846  0.63212465  0.99407323     0.03100
C1882       C  0.83167807  0.63007084  0.99141492    -0.11000
H1883       H  0.88904794  0.70966923  0.51243292     0.08700
H1884       H  0.78871314  0.66722667  0.50061717     0.06200
H1885       H  0.83074492  0.60772535  0.98210343     0.06000
C1886       C  0.67074969  0.87042482  0.49620865     0.03100
C1887       C  0.64255905  0.83972023  0.49823042    -0.13100
C1888       C  0.64358591  0.81127852  0.50371246     0.00600
C1889       C  0.67307897  0.81329810  0.50712692    -0.11600
C1890       C  0.70191125  0.84341810  0.50435865     0.03100
C1891       C  0.70054026  0.87197124  0.49759363    -0.11000
H1892       H  0.61962489  0.83794447  0.49573447     0.08700
H1893       H  0.67340450  0.79113542  0.51244393     0.06200
H1894       H  0.72251856  0.89522670  0.49385557     0.06000
C1895       C  0.87520579  0.87132648  0.55457822     0.86400
C1896       C  0.83996528  0.86222589  0.55730659    -0.53800
C1897       C  0.82263819  0.84556750  0.52253706     0.09400
C1898       C  0.84534365  0.84073932  0.98447767     0.20300
C1899       C  0.87459680  0.83941677  0.54704519    -0.54500
C1900       C  0.85756733  0.82175934  0.51342085     0.09500
C1901       C  0.88785852  0.88949273  0.51119622    -0.54100
C1902       C  0.87480162  0.87461120  0.97415143     0.10000
H1903       H  0.83027257  0.87023900  0.58391373     0.14600
H1904       H  0.83368177  0.82787937  0.95529666     0.00300
H1905       H  0.88578242  0.83076302  0.56780101     0.14900
H1906       H  0.90735422  0.91442016  0.50735097     0.14600
C1907       C  0.00450003  0.63052882  0.56076029     0.86400
C1908       C  0.53512551  0.66449161  0.55180637    -0.53800
C1909       C  0.53683521  0.67898343  0.51377977     0.09400
C1910       C  0.00569617  0.65576587  0.98704151     0.20300
C1911       C  0.97802927  0.63824992  0.55581296    -0.54500
C1912       C  0.97792038  0.65022827  0.51652586     0.09500
C1913       C  0.00393009  0.61021479  0.52165084    -0.54100
C1914       C  0.00553253  0.62337555  0.98182556     0.10000
H1915       H  0.55250680  0.67782914  0.57551586     0.14600
H1916       H  0.50674712  0.66677692  0.95622645     0.00300
H1917       H  0.96100239  0.63526485  0.58185888     0.14900
H1918       H  0.00192486  0.58658881  0.52437482     0.14600
C1919       C  0.62255581  0.00622038  0.53637414     0.86400
C1920       C  0.62708403  0.97643219  0.53221174    -0.53800
C1921       C  0.64263784  0.97501467  0.49502372     0.09400
C1922       C  0.64908359  0.00063892  0.96625931     0.20300
C1923       C  0.65604276  0.53532579  0.52528112    -0.54500
C1924       C  0.67124070  0.53439228  0.48750086     0.09500
C1925       C  0.60452937  0.00288886  0.49624930    -0.54100
C1926       C  0.61678088  0.99840910  0.95910762     0.10000
H1927       H  0.61850766  0.95727216  0.55595028     0.14600
H1928       H  0.66278612  0.99958203  0.93737081     0.00300
H1929       H  0.66736625  0.55500950  0.54827092     0.14900
H1930       H  0.58119557  0.00071793  0.49829725     0.14600
O1931       O  0.97596726  0.95257835  0.70114498    -0.85400
O1932       O  0.53718278  0.97839137  0.72162005    -0.82400
C1933       C  0.55169117  0.50305815  0.69553639     0.98100
O1934       O  0.54863194  0.52728196  0.70445301    -0.82500
O1935       O  0.52083170  0.56236413  0.73286990    -0.85100
C1936       C  0.49923821  0.55340902  0.70652602     1.02600
O1937       O  0.97483143  0.52501459  0.71011713    -0.77900
O1938       O  0.93792133  0.96140584  0.72587751    -0.78100
C1939       C  0.94927854  0.94994944  0.69738882     1.02500
O1940       O  0.95358018  0.93609134  0.79020938    -0.85400
O1941       O  0.51546337  0.96778965  0.81098670    -0.82500
C1942       C  0.54443024  0.49062778  0.81568130     0.98100
O1943       O  0.55670559  0.51560909  0.79172494    -0.82500
O1944       O  0.52314573  0.54532208  0.81929477    -0.85100
C1945       C  0.50051023  0.55081015  0.82634536     1.02600
O1946       O  0.97804574  0.53931051  0.80100638    -0.77900
O1947       O  0.94654391  0.97513928  0.81632741    -0.78100
C1948       C  0.94095499  0.94632836  0.81861170     1.02500
Cr1949     Cr  0.99591458  0.96129338  0.75604657     1.93700
Cr1950     Cr  0.53468425  0.53497777  0.76199095     1.93200
Cr1951     Cr  0.96242163  0.00096763  0.76311808     1.39100
O1952       O  0.49701343  0.99934636  0.76121286    -1.23100
C1953       C  0.60745631  0.49178707  0.61353465    -0.05800
C1954       C  0.60644700  0.00881888  0.57954434     0.00100
C1955       C  0.59056246  0.02703653  0.58539775    -0.08500
C1956       C  0.57161049  0.02261778  0.62330950    -0.05900
C1957       C  0.57141425  0.50429810  0.65613882     0.00100
C1958       C  0.58989692  0.48901745  0.65250975    -0.08400
C1959       C  0.59187613  0.47043418  0.68966675     0.62000
H1960       H  0.62271886  0.48154103  0.61213451     0.12700
H1961       H  0.55763982  0.03451647  0.62613579     0.12700
C1962       C  0.59260960  0.05201632  0.55434366     0.62200
F1963       F  0.61335838  0.96074399  0.68303817    -0.22900
F1964       F  0.56143845  0.94208018  0.69878385    -0.20300
F1965       F  0.60100059  0.49006205  0.72571639    -0.19900
F1966       F  0.56415387  0.03893677  0.53425157    -0.20000
F1967       F  0.61720658  0.56121586  0.52054793    -0.20300
F1968       F  0.59715547  0.57896331  0.57293071    -0.23000
C1969       C  0.59648803  0.50763589  0.84568214    -0.05800
C1970       C  0.56165568  0.98880048  0.85144059     0.00100
C1971       C  0.54707975  0.96986515  0.88917103    -0.08500
C1972       C  0.56687310  0.97091860  0.92056229    -0.05900
C1973       C  0.60032963  0.99196991  0.91772724     0.00100
C1974       C  0.61620926  0.50993950  0.87827516    -0.08400
C1975       C  0.65215093  0.53032718  0.86962802     0.62000
H1976       H  0.60722263  0.52092791  0.81599494     0.12700
H1977       H  0.55598774  0.95614738  0.94912219     0.12700
C1978       C  0.51092401  0.94988229  0.89796618     0.62200
F1979       F  0.65917650  0.04695980  0.83197294    -0.22900
F1980       F  0.66289926  0.00797818  0.86381504    -0.20300
F1981       F  0.66575192  0.55189236  0.90253531    -0.19900
F1982       F  0.49780846  0.92389297  0.86984030    -0.20000
F1983       F  0.49766817  0.46582485  0.89109471    -0.20300
F1984       F  0.50366915  0.43423520  0.93605493    -0.23000
C1985       C  0.52403886  0.57685514  0.89462184    -0.05800
C1986       C  0.50134327  0.57094690  0.86466914     0.00100
C1987       C  0.98136760  0.58456146  0.87231915    -0.08500
C1988       C  0.98465706  0.60291628  0.91013136    -0.05900
C1989       C  0.00711627  0.60823199  0.94005622     0.00100
C1990       C  0.52840229  0.59625700  0.93103389    -0.08400
C1991       C  0.55592314  0.60250683  0.95802495     0.62000
H1992       H  0.53928334  0.56648009  0.88943179     0.12700
H1993       H  0.96890138  0.61245468  0.91740463     0.12700
C1994       C  0.95689633  0.58035378  0.84106927     0.62200
F1995       F  0.58323140  0.61224155  0.93154074    -0.22900
F1996       F  0.54388191  0.57083221  0.48281904    -0.20300
F1997       F  0.56337514  0.62655799  0.98851741    -0.19900
F1998       F  0.93366734  0.54777282  0.83814306    -0.20000
F1999       F  0.97191119  0.59197892  0.80106722    -0.20300
F2000       F  0.94165673  0.59731120  0.85396446    -0.23000
C2001       C  0.52983486  0.62130311  0.62270756    -0.05800
C2002       C  0.00139927  0.61221805  0.60231205     0.00100
C2003       C  0.97252983  0.58318273  0.61663730    -0.08500
C2004       C  0.97325174  0.56639161  0.65222906    -0.05900
C2005       C  0.50153878  0.57557915  0.67204571     0.00100
C2006       C  0.53024293  0.60414260  0.65819972    -0.08400
C2007       C  0.56164022  0.61643143  0.67955770     0.62000
H2008       H  0.55234605  0.64131874  0.61085953     0.12700
H2009       H  0.95125281  0.54530303  0.66421212     0.12700
C2010       C  0.94004863  0.56904458  0.59695990     0.62200
F2011       F  0.58652835  0.64441152  0.66030792    -0.22900
F2012       F  0.57024199  0.59289692  0.67696185    -0.20300
F2013       F  0.55834517  0.62386680  0.72207111    -0.19900
F2014       F  0.94273823  0.57039208  0.55277183    -0.20000
F2015       F  0.92501303  0.58548057  0.61282141    -0.20300
F2016       F  0.92000973  0.53646635  0.60752986    -0.23000
C2017       C  0.88987880  0.87444481  0.89638240    -0.05800
C2018       C  0.88462909  0.89079594  0.93117702     0.00100
C2019       C  0.89343794  0.92385451  0.92588818    -0.08500
C2020       C  0.91176002  0.94059169  0.88894902    -0.05900
C2021       C  0.91969161  0.92517868  0.85525258     0.00100
C2022       C  0.90713622  0.89091704  0.85820058    -0.08400
C2023       C  0.91186861  0.87152500  0.82191901     0.62000
H2024       H  0.88162281  0.84885169  0.90007690     0.12700
H2025       H  0.92000572  0.96635620  0.88673250     0.12700
C2026       C  0.88414831  0.94269588  0.95801076     0.62200
F2027       F  0.89471348  0.83836341  0.83018390    -0.22900
F2028       F  0.94384098  0.88089305  0.81633095    -0.20300
F2029       F  0.90148063  0.87666869  0.78440193    -0.19900
F2030       F  0.90178826  0.96250608  0.47702558    -0.20000
F2031       F  0.85285900  0.91792182  0.48701982    -0.20300
F2032       F  0.87378708  0.96023001  0.93655904    -0.23000
C2033       C  0.89955838  0.90537577  0.66938916    -0.05800
C2034       C  0.93063138  0.93136580  0.66079025     0.00100
C2035       C  0.94444802  0.93668269  0.61846406    -0.08500
C2036       C  0.92630276  0.91558989  0.58604546    -0.05900
C2037       C  0.89427041  0.89014415  0.59359352     0.00100
C2038       C  0.88179320  0.88327802  0.63727652    -0.08400
C2039       C  0.85109752  0.85284673  0.65315354     0.62000
H2040       H  0.88985634  0.90103249  0.70237025     0.12700
H2041       H  0.93809935  0.91843365  0.55472335     0.12700
C2042       C  0.97813322  0.96473514  0.60709647     0.62200
F2043       F  0.85635241  0.84162769  0.69030296    -0.22900
F2044       F  0.84022049  0.82738789  0.62435263    -0.20300
F2045       F  0.82752319  0.86048816  0.66257576    -0.19900
F2046       F  0.00036587  0.95834517  0.62241406    -0.20000
F2047       F  0.98213640  0.99345862  0.62486702    -0.20300
F2048       F  0.98419853  0.96935087  0.56316904    -0.23000
C2049       C  0.56574080  0.73565154  0.54026582    -0.05800
C2050       C  0.56156281  0.71405902  0.50607226     0.00100
C2051       C  0.58124510  0.72493054  0.97067477    -0.08500
C2052       C  0.60785861  0.75696980  0.97144710    -0.05900
C2053       C  0.61392424  0.77888061  0.50467999     0.00100
C2054       C  0.59189201  0.76767187  0.54068993    -0.08400
C2055       C  0.59680105  0.78873831  0.58029928     0.62000
H2056       H  0.54870817  0.72668175  0.56770352     0.12700
H2057       H  0.62433804  0.76682908  0.94355726     0.12700
C2058       C  0.57638782  0.70482339  0.93022841     0.62200
F2059       F  0.57395500  0.77194942  0.61303739    -0.22900
F2060       F  0.59485201  0.81563911  0.57032340    -0.20300
F2061       F  0.62654321  0.79897242  0.59544993    -0.19900
F2062       F  0.55036535  0.70121114  0.91012646    -0.20000
F2063       F  0.57158455  0.67464804  0.93998355    -0.20300
F2064       F  0.60270379  0.71954759  0.90137591    -0.23000
C2065       C  0.67108898  0.94973334  0.52210945    -0.05800
C2066       C  0.65292364  0.95046491  0.48978664     0.00100
C2067       C  0.63995992  0.92354578  0.96123138    -0.08500
C2068       C  0.64841976  0.89935709  0.96320946    -0.05900
C2069       C  0.66784942  0.90015606  0.49296628     0.00100
C2070       C  0.67744350  0.92435518  0.52555445    -0.08400
C2071       C  0.69290912  0.92303079  0.56519040     0.62000
H2072       H  0.67904448  0.96874417  0.54621673     0.12700
H2073       H  0.64111866  0.88067052  0.93873143     0.12700
C2074       C  0.61869527  0.92167640  0.92657778     0.62200
F2075       F  0.69418178  0.94499220  0.59628151    -0.22900
F2076       F  0.72380197  0.93099245  0.55386696    -0.20300
F2077       F  0.67574286  0.89222533  0.58317065    -0.19900
F2078       F  0.63545013  0.94793864  0.89925279    -0.20000
F2079       F  0.59211070  0.92174938  0.94501964    -0.20300
F2080       F  0.60808494  0.89356995  0.90229285    -0.23000
C2081       C  0.73880730  0.82257979  0.98633103    -0.05800
C2082       C  0.73293315  0.84422023  0.50891194     0.00100
C2083       C  0.75715247  0.86682914  0.53529680    -0.08500
C2084       C  0.78659699  0.86826768  0.53367575    -0.05900
C2085       C  0.79110339  0.84343107  0.51533009     0.00100
C2086       C  0.76727169  0.82150483  0.98829563    -0.08400
C2087       C  0.76843745  0.79328587  0.96629961     0.62000
H2088       H  0.71993834  0.80476159  0.96704342     0.12700
H2089       H  0.80577728  0.88864123  0.54965647     0.12700
C2090       C  0.75299515  0.88821047  0.56871479     0.62200
F2091       F  0.73802096  0.76748726  0.95943493    -0.22900
F2092       F  0.78283307  0.78167697  0.99130914    -0.20300
F2093       F  0.78479620  0.80326522  0.92673843    -0.19900
F2094       F  0.72127720  0.87791470  0.57884854    -0.20000
F2095       F  0.76925189  0.91999817  0.55406119    -0.20300
F2096       F  0.76585079  0.88711301  0.60642821    -0.23000
C2097       C  0.74902279  0.61035251  0.96778039    -0.05800
C2098       C  0.77267255  0.60474167  0.48083730     0.00100
C2099       C  0.75979282  0.57206249  0.49600711    -0.08500
C2100       C  0.72709278  0.54917245  0.49147672    -0.05900
C2101       C  0.70578205  0.55832226  0.47883953     0.00100
C2102       C  0.71799722  0.59087628  0.46562065    -0.08400
C2103       C  0.69777525  0.60582992  0.45742624     0.62000
H2104       H  0.75810219  0.63392358  0.95300080     0.12700
H2105       H  0.71712216  0.52422626  0.50184318     0.12700
C2106       C  0.77842189  0.56113474  0.52079788     0.62200
F2107       F  0.70478871  0.61820539  0.41616166    -0.22900
F2108       F  0.70517260  0.63116257  0.48602873    -0.20300
F2109       F  0.66339807  0.58388700  0.97027057    -0.19900
F2110       F  0.79372010  0.58340512  0.55267772    -0.20000
F2111       F  0.79654486  0.55558459  0.00222861    -0.20300
F2112       F  0.75573295  0.53119167  0.05063014    -0.23000
C2113       C  0.86361115  0.74762533  0.97753923    -0.05800
C2114       C  0.84298717  0.72485549  0.50832967     0.00100
C2115       C  0.82463227  0.73301899  0.53772662    -0.08500
C2116       C  0.82841326  0.76420377  0.53520207    -0.05900
C2117       C  0.85144539  0.78818764  0.50689170     0.00100
C2118       C  0.87009592  0.77994190  0.97714291    -0.08400
C2119       C  0.89877449  0.80386365  0.94898614     0.62000
H2120       H  0.87728996  0.74076640  0.95535564     0.12700
H2121       H  0.81444883  0.77064410  0.55747928     0.12700
C2122       C  0.80178020  0.71049636  0.57313327     0.62200
F2123       F  0.92489865  0.80102064  0.95689771    -0.23700
F2124       F  0.90699300  0.83689347  0.45834146    -0.20300
F2125       F  0.89205144  0.79650819  0.90639040    -0.19900
F2126       F  0.80725835  0.68565161  0.58216271    -0.20000
F2127       F  0.77222413  0.69196452  0.06165768    -0.20300
F2128       F  0.80528855  0.72797286  0.61069081    -0.23000
C2129       C  0.91961127  0.62849025  0.52341947    -0.05800
C2130       C  0.94945468  0.65251996  0.50516037     0.00100
C2131       C  0.94853685  0.67707359  0.98470605    -0.08500
C2132       C  0.91972171  0.67709527  0.98079158    -0.05900
C2133       C  0.89284481  0.65570043  0.49973488     0.00100
C2134       C  0.89282611  0.63207993  0.52584635    -0.08400
C2135       C  0.86738925  0.61316213  0.56097227     0.62000
H2136       H  0.91779279  0.60808063  0.54021143     0.12700
H2137       H  0.91989077  0.69583650  0.96194249     0.12700
C2138       C  0.97950425  0.70641700  0.96785525     0.62200
F2139       F  0.88171696  0.61303648  0.59775587    -0.22900
F2140       F  0.84637561  0.57991874  0.05125951    -0.20300
F2141       F  0.84904602  0.62707439  0.57211770    -0.19900
F2142       F  0.98956289  0.69898337  0.92903044    -0.20000
F2143       F  0.50467731  0.71852015  0.49331129    -0.20300
F2144       F  0.97563881  0.73274893  0.96131777    -0.23000
loop_ 
_geom_bond_atom_site_label_1 
_geom_bond_atom_site_label_2 
_geom_bond_distance 
_geom_bond_site_symmetry_2 
_ccdc_geom_bond_type 
C1            C6   1.417       .  A
C1          C270   1.402       .  A
C1          C525   1.499       .  S
C2            C3   1.399       .  A
C2          C269   1.403       .  A
C2            H7   1.084       .  S
C3            C4   1.402       .  A
C3          C238   1.494       .  S
C4          C273   1.420   1_554  A
C4            H8   1.078       .  S
C5            C6   1.419       .  A
C5          C272   1.417       .  A
C5          C490   1.526       .  S
C6            H9   1.072       .  S
C10          C11   1.403       .  A
C10          C15   1.414       .  A
C10         C193   1.496   1_554  S
C11          C12   1.398       .  A
C11          H16   1.084       .  S
C12          C13   1.402       .  A
C12         C177   1.482       .  S
C13          C14   1.409       .  A
C13          H17   1.084       .  S
C14          C15   1.420       .  A
C14         C206   1.510       .  S
C15          H18   1.081   1_554  S
C19          C20   1.534       .  S
C19          C25   1.545       .  S
C19          C23   1.516       .  S
C19         C161   1.540       .  S
C20          H27   1.083       .  S
C20          C21   1.377       .  D
C21         C290   1.559   1_554  S
C21         C209   1.523       .  S
C22          C26   1.537       .  S
C22         C289   1.551       .  S
C22         C292   1.558       .  S
C22          H28   1.102       .  S
C23          H29   1.087       .  S
C23          C24   1.358       .  D
C24         C290   1.564   1_554  S
C24         C241   1.490       .  S
C25          H30   1.081       .  S
C25         C294   1.363   1_554  D
C26         C293   1.363       .  D
C26         C142   1.489       .  S
C31          C37   1.528       .  S
C31          C35   1.527       .  S
C31        C1104   1.546       .  S
C31         C126   1.549       .  S
C32        C1103   1.546       .  S
C32          H39   1.079       .  S
C32          C33   1.371       .  D
C33        C1374   1.551   1_554  S
C33         C174   1.504       .  S
C34          C38   1.543       .  S
C34        C1373   1.550       .  S
C34         C304   1.550       .  S
C34        H1112   1.094       .  S
C35          H41   1.083       .  S
C35          C36   1.373       .  D
C36         C302   1.553   1_554  S
C36         C254   1.515       .  S
C37          H42   1.087       .  S
C37         C306   1.360   1_554  D
C38         C305   1.358       .  D
C38         C113   1.485       .  S
H40        C1106   1.095       .  S
C43          C44   1.545       .  S
C43          C49   1.532   1_554  S
C43         C583   1.528       .  S
C43          C78   1.545       .  S
C44          H51   1.085       .  S
C44          C45   1.364   1_554  D
C45         C314   1.542       .  S
C45         C190   1.495       .  S
C46          C50   1.553       .  S
C46         C313   1.539       .  S
C46         C852   1.548       .  S
C46          H52   1.101       .  S
C47         C579   1.528       .  S
C47          H53   1.087       .  S
C47          C48   1.363   1_554  D
C48         C850   1.549       .  S
C48         C225   1.484       .  S
C49          H54   1.083       .  S
C49         C318   1.376       .  D
C50         C317   1.377       .  D
C50          C97   1.509       .  S
O55         Cr73   1.947       .  S
O55          C63   1.253       .  A
O56       Cr1145   2.024   1_455  S
O56         C593   1.269       .  A
C57          C81   1.487   1_565  S
C57          O58   1.257   1_565  A
C57         O592   1.269       .  A
O58         Cr74   1.961       .  S
O59         Cr74   2.011       .  S
O59          C60   1.264   1_455  A
C60         C129   1.498       .  S
C60        O1133   1.259       .  A
O61        Cr611   1.966   1_545  S
O61        C1132   1.258       .  A
O62         Cr75   2.020       .  S
O62          C63   1.268       .  A
C63         C158   1.469       .  S
O64         Cr73   2.020       .  S
O64          C72   1.267       .  A
O65       Cr1145   1.961   1_455  S
O65         C602   1.255       .  A
C66         C630   1.491       .  S
C66          O67   1.270   1_565  A
C66         O601   1.255       .  A
O67         Cr74   2.018       .  S
O68         Cr74   1.957       .  S
O68          C69   1.260   1_455  A
C69         C110   1.495   1_655  S
C69        O1142   1.269       .  A
O70        Cr611   2.026   1_545  S
O70        C1141   1.269       .  A
O71         Cr75   1.960       .  S
O71          C72   1.259       .  A
C72         C145   1.496       .  S
Cr73       O1128   2.022       .  S
Cr73       O1137   1.962       .  S
Cr73       O1148   1.765       .  S
Cr74        O612   1.760   1_445  S
Cr75        O597   1.965       .  S
Cr75        O606   2.024       .  S
Cr75       O1148   1.766       .  S
O76       Cr1145   1.765       .  S
O76        Cr610   1.761   1_655  S
O76       Cr1147   1.766       .  S
C77          C82   1.407       .  A
C77         C614   1.415   1_565  A
C77          H84   1.078       .  S
C78          C79   1.430       .  A
C78         C613   1.416       .  A
C79          C80   1.405       .  A
C79          C86   1.522       .  S
C80         C617   1.403       .  A
C80          H85   1.085       .  S
C81          C82   1.414   1_545  A
C81         C616   1.404       .  A
C82          C83   1.520       .  S
C83          F89   1.383       .  S
C83         F623   1.385       .  S
C83         F624   1.383       .  S
C86          F90   1.383       .  S
C86         F627   1.376       .  S
C86         F628   1.385       .  S
F87         C619   1.385       .  S
F88         C619   1.383       .  S
F91         C622   1.377       .  S
F92         C622   1.385       .  S
C93          C98   1.409       .  A
C93         C630   1.404   1_545  A
C93         H100   1.082       .  S
C94          C95   1.422       .  A
C94         C629   1.405       .  A
C94         C602   1.493       .  S
C95          C96   1.406       .  A
C95         C102   1.524       .  S
C96          C97   1.409       .  A
C96         H101   1.082       .  S
C97         C634   1.424       .  A
C98         C633   1.424   1_545  A
C98          C99   1.517       .  S
C99         F105   1.371       .  S
C99         F639   1.385       .  S
C99         F640   1.380       .  S
C102        F106   1.383       .  S
C102        F643   1.384   1_455  S
C102        F644   1.385       .  S
F103        C635   1.385       .  S
F104        C635   1.380       .  S
F107        C638   1.384   1_655  S
F108        C638   1.385       .  S
C109        C110   1.406       .  A
C109        C114   1.398       .  A
C109        H116   1.084       .  S
C110       C1183   1.425   1_455  A
C111        C112   1.413       .  A
C111       C1182   1.425       .  A
C111        C118   1.519       .  S
C112        C113   1.404       .  A
C112        H117   1.083       .  S
C113       C1186   1.420       .  A
C114       C1185   1.420       .  A
C114        C115   1.524       .  S
C115        F119   1.385       .  S
C115        F121   1.380       .  S
C115        F388   1.382       .  S
C118        F122   1.383       .  S
C118        F123   1.384       .  S
C118        F124   1.385       .  S
F120        C383   1.382       .  S
C125        C130   1.408       .  A
C125       C1198   1.415   1_455  A
C125        H132   1.068       .  S
C126        C127   1.438       .  A
C126       C1197   1.414       .  A
C127        C128   1.407       .  A
C127        C134   1.534       .  S
C128       C1201   1.404       .  A
C128        H133   1.082       .  S
C129        C130   1.419   1_655  A
C129       C1200   1.404       .  A
C130        C131   1.524       .  S
C131        F135   1.385       .  S
C131        F136   1.383       .  S
C131        F137   1.384       .  S
C134        F138   1.376       .  S
C134        F139   1.382       .  S
C134        F140   1.386       .  S
C141        C142   1.402       .  A
C141        C146   1.413       .  A
C141        H148   1.080       .  S
C142        C143   1.416       .  A
C143        C144   1.398       .  A
C143        C150   1.520       .  S
C144        C145   1.408       .  A
C144        H149   1.084       .  S
C145        C146   1.426       .  A
C146        C147   1.519       .  S
C147        F151   1.384       .  S
C147        F152   1.383       .  S
C147        F153   1.384       .  S
C150        F156   1.384       .  S
C150        F422   1.383       .  S
C150        F423   1.381       .  S
F154        C418   1.383       .  S
F155        C418   1.381       .  S
C157        C158   1.396       .  A
C157        C162   1.408       .  A
C157        H164   1.085       .  S
C158        C159   1.411       .  A
C159        C160   1.397       .  A
C159        C166   1.522       .  S
C160        C161   1.412       .  A
C160        H165   1.076       .  S
C161        C162   1.436       .  A
C162        C163   1.525       .  S
C163        F167   1.385       .  S
C163        F168   1.377       .  S
C163        F169   1.383       .  S
C166        F170   1.381       .  S
C166        F171   1.383       .  S
C166        F172   1.385       .  S
C173        C174   1.411       .  A
C173        C178   1.404       .  A
C173        H180   1.083       .  S
C174        C443   1.423   1_554  A
C175        C176   1.409       .  A
C175        C442   1.420       .  A
C175        C182   1.517       .  S
C176        C445   1.402       .  A
C176        H181   1.083       .  S
C177        C178   1.411       .  A
C177        C444   1.401   1_554  A
C178        C179   1.520       .  S
C179        F183   1.385       .  S
C179        F184   1.382       .  S
C179        F185   1.384       .  S
C182        F186   1.380       .  S
C182        F187   1.377       .  S
C182        F188   1.385       .  S
C189        C190   1.402   1_554  A
C189        C194   1.404       .  A
C189        H196   1.084       .  S
C190        C459   1.419       .  A
C191        C192   1.415       .  A
C191        C458   1.416       .  A
C191        C198   1.516       .  S
C192        C461   1.411       .  A
C192        H197   1.083       .  S
C193        C194   1.419   1_556  A
C193        C460   1.408       .  A
C194        C195   1.514       .  S
C195        F199   1.385       .  S
C195        F200   1.376       .  S
C195        F201   1.383       .  S
C198        F202   1.380       .  S
C198        F203   1.383       .  S
C198        F204   1.384       .  S
C205        C210   1.418       .  A
C205        C474   1.412       .  A
C205        H212   1.083       .  S
C206        C207   1.417       .  A
C206        C473   1.411   1_554  A
C207        C208   1.401       .  A
C207        C214   1.514       .  S
C208        C209   1.412       .  A
C208        H213   1.081       .  S
C209        C478   1.427   1_554  A
C210        C477   1.427       .  A
C210        C211   1.517       .  S
C211        F215   1.385       .  S
C211        F216   1.380       .  S
C211        F217   1.382       .  S
C214        F218   1.380       .  S
C214        F219   1.381       .  S
C214        F220   1.386       .  S
C221        C490   1.414       .  A
C221        C494   1.403       .  A
C221        H228   1.083       .  S
C222        C223   1.438   1_556  A
C222        C489   1.414       .  A
C222        C273   1.527       .  S
C223        C224   1.411   1_554  A
C223        C230   1.515       .  S
C224        C225   1.395       .  A
C224        H229   1.084   1_556  S
C225        C226   1.416       .  A
C226        C489   1.404       .  A
C226        C227   1.519       .  S
C227        F231   1.383       .  S
C227        F232   1.384       .  S
C227        F501   1.379       .  S
C230        F234   1.376       .  S
C230        F503   1.380   1_554  S
C230        F504   1.386       .  S
F233        C495   1.378       .  S
F235        C498   1.380       .  S
F236        C498   1.386       .  S
C237        C242   1.405       .  A
C237        C506   1.406       .  A
C237        H244   1.085       .  S
C238        C239   1.418       .  A
C238        C505   1.406   1_554  A
C239        C240   1.410       .  A
C239        C246   1.520       .  S
C240        C241   1.407       .  A
C240        H245   1.084       .  S
C241        C510   1.419   1_554  A
C242        C509   1.417       .  A
C242        C243   1.517       .  S
C243        F247   1.384       .  S
C243        F249   1.382       .  S
C243        F516   1.379       .  S
C246        F250   1.384       .  S
C246        F252   1.385       .  S
C246        F519   1.381       .  S
F248        C511   1.379       .  S
F251        C514   1.382       .  S
C253        C254   1.409       .  A
C253        C258   1.398       .  A
C253        H260   1.082       .  S
C254        C523   1.429   1_554  A
C255        C256   1.418       .  A
C255        C522   1.428       .  A
C255        C262   1.517       .  S
C256        C525   1.409       .  A
C256        H261   1.083       .  S
C257        C258   1.414       .  A
C257        C524   1.407   1_554  A
C257        C269   1.499       .  S
C258        C259   1.515       .  S
C259        F263   1.385       .  S
C259        F265   1.381       .  S
C259        F532   1.380       .  S
C262        F266   1.381       .  S
C262        F268   1.385       .  S
C262       F1607   1.380       .  S
F264        C527   1.379       .  S
F267       C1602   1.379   1_455  S
C269        C274   1.416   1_554  A
C270        C271   1.399       .  A
C270        H275   1.084       .  S
C271        C272   1.399       .  A
C271        C506   1.491       .  S
C272        H276   1.077       .  S
C273        C274   1.417       .  A
C274        H277   1.073       .  S
C278        C279   1.407       .  A
C278        C283   1.417       .  A
C278        C461   1.504       .  S
C279        C280   1.400       .  A
C279        H284   1.084       .  S
C280        C281   1.400       .  A
C280        C445   1.481       .  S
C281        C282   1.404       .  A
C281        H285   1.084       .  S
C282        C283   1.420       .  A
C282        C474   1.504       .  S
C283        H286   1.081       .  S
C287        C288   1.535       .  S
C287        C293   1.546       .  S
C287        C291   1.517       .  S
C287        C429   1.541       .  S
C288        H295   1.081       .  S
C288        C289   1.377       .  D
C289        C477   1.516       .  S
C290        C294   1.542       .  S
C290        H296   1.100       .  S
C291        H297   1.087       .  S
C291        C292   1.358       .  D
C292        C509   1.482       .  S
C293        H298   1.082       .  S
C294        C410   1.495       .  S
C299       C1372   1.542       .  S
C299        C305   1.523       .  S
C299        C303   1.530       .  S
C299        C394   1.542       .  S
C300       C1371   1.542       .  S
C300        H307   1.084       .  S
C300        C301   1.370       .  D
C301       C1106   1.550       .  S
C301        C442   1.497       .  S
C302       C1105   1.552   1_556  S
C302        C306   1.545       .  S
C302       H1380   1.095       .  S
C303        H309   1.082       .  S
C303        C304   1.375       .  D
C304        C522   1.511       .  S
C305        H310   1.087       .  S
C306        C381   1.490       .  S
H308       C1374   1.094       .  S
C311        C312   1.548       .  S
C311        C317   1.535       .  S
C311        C851   1.529       .  S
C311        C346   1.552       .  S
C312        H319   1.083       .  S
C312        C313   1.364       .  D
C313        C458   1.493       .  S
C314        C318   1.553       .  S
C314        C584   1.550       .  S
C314        H320   1.101       .  S
C315        C847   1.529       .  S
C315        H321   1.087       .  S
C315        C316   1.362       .  D
C316        C582   1.547       .  S
C316        C493   1.484       .  S
C317        H322   1.084       .  S
C318        C365   1.507       .  S
O323       Cr341   1.952       .  S
O323        C331   1.253       .  A
O324      Cr1413   2.025   1_455  S
O324        C861   1.269       .  A
C325        C349   1.488       .  S
C325        O860   1.267   1_545  A
C325        O326   1.257       .  A
O326       Cr342   1.964       .  S
O327       Cr342   2.016       .  S
O327        C328   1.265       .  A
C328        C397   1.495       .  S
C328       O1401   1.260   1_455  A
O329       Cr879   1.967       .  S
O329       C1400   1.260       .  A
O330       Cr343   2.019       .  S
O330        C331   1.267       .  A
C331        C426   1.470       .  S
O332       Cr341   2.029       .  S
O332        C340   1.270       .  A
O333      Cr1413   1.956   1_455  S
O333        C870   1.254       .  A
C334        C898   1.485       .  S
C334        O869   1.255       .  A
C334        O335   1.269   1_565  A
O335       Cr342   2.014       .  S
O336       Cr342   1.965       .  S
O336        C337   1.261       .  A
C337        C378   1.501       .  S
C337       O1410   1.268   1_455  A
O338       Cr879   2.027       .  S
O338       C1409   1.268       .  A
O339       Cr343   1.961       .  S
O339        C340   1.260       .  A
C340        C413   1.500       .  S
Cr341      O1396   2.025       .  S
Cr341      O1405   1.956       .  S
Cr341      O1416   1.765       .  S
Cr342       O880   1.762   1_445  S
Cr343       O865   1.964       .  S
Cr343       O874   2.025       .  S
Cr343      O1416   1.766       .  S
O344      Cr1413   1.765       .  S
O344       Cr878   1.762   1_655  S
O344      Cr1415   1.766       .  S
C345        C882   1.417   1_565  A
C345        C350   1.410       .  A
C345        H352   1.077       .  S
C346        C881   1.416       .  A
C346        C347   1.432       .  A
C347        C348   1.408       .  A
C347        C354   1.522       .  S
C348        C885   1.404       .  A
C348        H353   1.085       .  S
C349        C884   1.403       .  A
C349        C350   1.415   1_545  A
C350        C351   1.521       .  S
C351        F891   1.385       .  S
C351        F892   1.383       .  S
C351        F357   1.384       .  S
C354        F358   1.382       .  S
C354        F895   1.374       .  S
C354        F896   1.385       .  S
F355        C887   1.385       .  S
F356        C887   1.382       .  S
F359        C890   1.374       .  S
F360        C890   1.385       .  S
C361        C898   1.403   1_545  A
C361        C366   1.408       .  A
C361        H368   1.083       .  S
C362        C897   1.403       .  A
C362        C363   1.420       .  A
C362        C870   1.486       .  S
C363        C364   1.403       .  A
C363        C370   1.525       .  S
C364        C365   1.409       .  A
C364        H369   1.082       .  S
C365        C902   1.424       .  A
C366        C901   1.425   1_545  A
C366        C367   1.517       .  S
C367        F907   1.385       .  S
C367        F908   1.380       .  S
C367        F373   1.370       .  S
C370        F374   1.383       .  S
C370        F911   1.384   1_455  S
C370        F912   1.385       .  S
F371        C903   1.385       .  S
F372        C903   1.380       .  S
F375        C906   1.384   1_655  S
F376        C906   1.385       .  S
C377        C378   1.408       .  A
C377        C382   1.401       .  A
C377        H384   1.084       .  S
C378       C1451   1.427   1_455  A
C379       C1450   1.427       .  A
C379        C380   1.416       .  A
C379        C386   1.520       .  S
C380        C381   1.405       .  A
C380        H385   1.083       .  S
C381       C1454   1.421       .  A
C382       C1453   1.421       .  A
C382        C383   1.525       .  S
C383        F387   1.384       .  S
C383        F389   1.380       .  S
C386        F390   1.383       .  S
C386        F391   1.384       .  S
C386        F392   1.385       .  S
C393       C1466   1.414       .  A
C393        C398   1.408       .  A
C393        H400   1.075       .  S
C394       C1465   1.413       .  A
C394        C395   1.434       .  A
C395        C396   1.405       .  A
C395        C402   1.530       .  S
C396       C1469   1.403       .  A
C396        H401   1.083       .  S
C397       C1468   1.403   1_455  A
C397        C398   1.419       .  A
C398        C399   1.522       .  S
C399        F403   1.385       .  S
C399        F404   1.380       .  S
C399        F405   1.382       .  S
C402        F406   1.378       .  S
C402        F407   1.382       .  S
C402        F408   1.386       .  S
C409        C410   1.403       .  A
C409        C414   1.416       .  A
C409        H416   1.080       .  S
C410        C411   1.418       .  A
C411        C412   1.399       .  A
C411        C418   1.521       .  S
C412        C413   1.408       .  A
C412        H417   1.084       .  S
C413        C414   1.426       .  A
C414        C415   1.518       .  S
C415        F419   1.384       .  S
C415        F420   1.383       .  S
C415        F421   1.384       .  S
C418        F424   1.384       .  S
C425        C426   1.397       .  A
C425        C430   1.407       .  A
C425        H432   1.085       .  S
C426        C427   1.411       .  A
C427        C428   1.399       .  A
C427        C434   1.523       .  S
C428        C429   1.413       .  A
C428        H433   1.077       .  S
C429        C430   1.434       .  A
C430        C431   1.525       .  S
C431        F435   1.385       .  S
C431        F436   1.378       .  S
C431        F437   1.383       .  S
C434        F438   1.381       .  S
C434        F439   1.384       .  S
C434        F440   1.385       .  S
C441        C442   1.410       .  A
C441        C446   1.405       .  A
C441        H448   1.083       .  S
C443        C444   1.411       .  A
C443        C450   1.516       .  S
C444        H449   1.083       .  S
C445        C446   1.413       .  A
C446        C447   1.520       .  S
C447        F451   1.385       .  S
C447        F452   1.381       .  S
C447        F453   1.383       .  S
C450        F454   1.380       .  S
C450        F455   1.376       .  S
C450        F456   1.385       .  S
C457        C458   1.399       .  A
C457        C462   1.405       .  A
C457        H464   1.083       .  S
C459        C460   1.415       .  A
C459        C466   1.517       .  S
C460        H465   1.083       .  S
C461        C462   1.422       .  A
C462        C463   1.512       .  S
C463        F467   1.385       .  S
C463        F468   1.375       .  S
C463        F469   1.382       .  S
C466        F470   1.378       .  S
C466        F471   1.383       .  S
C466        F472   1.385       .  S
C473        C478   1.419       .  A
C473        H480   1.083       .  S
C474        C475   1.415       .  A
C475        C476   1.397       .  A
C475        C482   1.512       .  S
C476        C477   1.409       .  A
C476        H481   1.081       .  S
C478        C479   1.516       .  S
C479        F483   1.385       .  S
C479        F484   1.381       .  S
C479        F485   1.382       .  S
C482        F486   1.376       .  S
C482        F487   1.382       .  S
C482        F488   1.385       .  S
C489        H496   1.083       .  S
C490        C491   1.436       .  A
C491        C492   1.412       .  A
C491        C498   1.513       .  S
C492        C493   1.396       .  A
C492        H497   1.083       .  S
C493        C494   1.415       .  A
C494        C495   1.519       .  S
C495        F499   1.383       .  S
C495        F500   1.384       .  S
C498        F502   1.376       .  S
C505        C510   1.408       .  A
C505        H512   1.085       .  S
C506        C507   1.420       .  A
C507        C508   1.407       .  A
C507        C514   1.521       .  S
C508        C509   1.405       .  A
C508        H513   1.084       .  S
C510        C511   1.517       .  S
C511        F515   1.385       .  S
C511        F517   1.382       .  S
C514        F518   1.383       .  S
C514        F520   1.385       .  S
C521        C522   1.406       .  A
C521        C526   1.396       .  A
C521        H528   1.082       .  S
C523        C524   1.417       .  A
C523        C530   1.516       .  S
C524        H529   1.083       .  S
C525        C526   1.414       .  A
C526        C527   1.513       .  S
C527        F531   1.385       .  S
C527        F533   1.381       .  S
C530        F534   1.381       .  S
C530       F1339   1.379       .  S
C530        F536   1.385       .  S
F535       C1334   1.380   1_455  S
C537        C806   1.400       .  A
C537        C542   1.415       .  A
C537       C1061   1.494       .  S
C538        C805   1.404       .  A
C538        C539   1.401       .  A
C538        H543   1.084       .  S
C539        C540   1.402       .  A
C539        C774   1.496       .  S
C540        C809   1.419   1_554  A
C540        H544   1.078       .  S
C541        C808   1.417       .  A
C541        C542   1.417       .  A
C541       C1026   1.522       .  S
C542        H545   1.073       .  S
C546        C547   1.402   1_556  A
C546        C551   1.412   1_556  A
C546        C729   1.493       .  S
C547        C548   1.397       .  A
C547        H552   1.084   1_554  S
C548        C549   1.403       .  A
C548        C713   1.482       .  S
C549        C550   1.411       .  A
C549        H553   1.084       .  S
C550        C551   1.418       .  A
C550        C742   1.510       .  S
C551        H554   1.080   1_554  S
C555        C556   1.535       .  S
C555        C561   1.545       .  S
C555        C559   1.516       .  S
C555        C697   1.538       .  S
C556        H563   1.083       .  S
C556        C557   1.378       .  D
C557        C826   1.558   1_554  S
C557        C745   1.523       .  S
C558        C825   1.552       .  S
C558        C562   1.537       .  S
C558        C828   1.557       .  S
C558        H564   1.102       .  S
C559        H565   1.087       .  S
C559        C560   1.357       .  D
C560        C826   1.563   1_554  S
C560        C777   1.489       .  S
C561        H566   1.081       .  S
C561        C830   1.361   1_554  D
C562        C829   1.363       .  D
C562        C678   1.489       .  S
C567       C1640   1.546       .  S
C567        C573   1.527       .  S
C567        C571   1.527       .  S
C567        C662   1.548       .  S
C568       C1639   1.545       .  S
C568        H575   1.080       .  S
C568        C569   1.371       .  D
C569       C1910   1.551   1_554  S
C569        C710   1.503       .  S
C570       C1909   1.548       .  S
C570        C574   1.542       .  S
C570        C840   1.550       .  S
C570       H1648   1.094       .  S
C571        H577   1.084       .  S
C571        C572   1.372       .  D
C572        C838   1.552   1_554  S
C572        C790   1.513       .  S
C573        H578   1.087       .  S
C573        C842   1.360   1_554  D
C574        C841   1.358       .  D
C574        C649   1.485       .  S
H576       C1642   1.095       .  S
C579        C580   1.545   1_545  S
C579        C585   1.531   1_544  S
C579        C614   1.546       .  S
C580        H587   1.084       .  S
C580        C581   1.363   1_554  D
C581        C850   1.540   1_565  S
C581        C726   1.492       .  S
C582        C849   1.538   1_545  S
C582        C586   1.551       .  S
C582        H588   1.101       .  S
C583        H589   1.087       .  S
C583        C584   1.362   1_554  D
C584        C761   1.485       .  S
C585        H590   1.083       .  S
C585        C854   1.376       .  D
C586        C853   1.377       .  D
C586        C633   1.507   1_545  S
O591       Cr609   1.947       .  S
O591        C599   1.253       .  A
O592      Cr1681   2.026   1_455  S
C593        C617   1.485       .  S
C593        O594   1.257       .  A
O594       Cr610   1.961       .  S
O595       Cr610   2.012       .  S
O595        C596   1.264   1_455  A
C596        C665   1.498       .  S
C596       O1669   1.259       .  A
O597       C1668   1.258       .  A
O598       Cr611   2.018       .  S
O598        C599   1.267       .  A
C599        C694   1.468       .  S
O600       Cr609   2.025       .  S
O600        C608   1.268       .  A
O601      Cr1681   1.960   1_455  S
C602        O603   1.270       .  A
O603       Cr610   2.019       .  S
O604       Cr610   1.956       .  S
O604        C605   1.259   1_455  A
C605        C646   1.494       .  S
C605       O1678   1.269       .  A
O606       C1677   1.269       .  A
O607       Cr611   1.960       .  S
O607        C608   1.259       .  A
C608        C681   1.498       .  S
Cr609      O1664   2.024       .  S
Cr609      O1673   1.962       .  S
Cr609      O1684   1.766       .  S
Cr611      O1684   1.766       .  S
O612      Cr1681   1.766       .  S
O612      Cr1683   1.766       .  S
C613        C618   1.408       .  A
C613        H620   1.079       .  S
C614        C615   1.430       .  A
C615        C616   1.405       .  A
C615        C622   1.523       .  S
C616        H621   1.085       .  S
C617        C618   1.414       .  A
C618        C619   1.520       .  S
C619        F625   1.383       .  S
C622        F626   1.383       .  S
C629        C634   1.409       .  A
C629        H636   1.082       .  S
C630        C631   1.422       .  A
C631        C632   1.405       .  A
C631        C638   1.524       .  S
C632        C633   1.409       .  A
C632        H637   1.082       .  S
C634        C635   1.517       .  S
C635        F641   1.371       .  S
C638        F642   1.383       .  S
C645        C646   1.407   1_455  A
C645        C650   1.399       .  A
C645        H652   1.084       .  S
C646       C1719   1.424       .  A
C647       C1718   1.424       .  A
C647        C648   1.412       .  A
C647        C654   1.519       .  S
C648        C649   1.403       .  A
C648        H653   1.083       .  S
C649       C1722   1.420       .  A
C650       C1721   1.421       .  A
C650        C651   1.524       .  S
C651        F655   1.385       .  S
C651        F924   1.382       .  S
C651        F657   1.380       .  S
C654        F658   1.383       .  S
C654        F659   1.384       .  S
C654        F660   1.385       .  S
F656        C919   1.382       .  S
C661       C1734   1.414   1_455  A
C661        C666   1.407       .  A
C661        H668   1.069       .  S
C662       C1733   1.414       .  A
C662        C663   1.438       .  A
C663        C664   1.407       .  A
C663        C670   1.535       .  S
C664       C1737   1.404       .  A
C664        H669   1.082       .  S
C665       C1736   1.404       .  A
C665        C666   1.419   1_655  A
C666        C667   1.524       .  S
C667        F671   1.385       .  S
C667        F672   1.383       .  S
C667        F673   1.384       .  S
C670        F674   1.376       .  S
C670        F675   1.382       .  S
C670        F676   1.386       .  S
C677        C678   1.401       .  A
C677        C682   1.413       .  A
C677        H684   1.080       .  S
C678        C679   1.415       .  A
C679        C680   1.398       .  A
C679        C686   1.520       .  S
C680        C681   1.409       .  A
C680        H685   1.084       .  S
C681        C682   1.426       .  A
C682        C683   1.519       .  S
C683        F687   1.384       .  S
C683        F688   1.383       .  S
C683        F689   1.383       .  S
C686        F958   1.383       .  S
C686        F959   1.381       .  S
C686        F692   1.384       .  S
F690        C954   1.383       .  S
F691        C954   1.381       .  S
C693        C694   1.396       .  A
C693        C698   1.407       .  A
C693        H700   1.085       .  S
C694        C695   1.411       .  A
C695        C696   1.397       .  A
C695        C702   1.522       .  S
C696        C697   1.412       .  A
C696        H701   1.076       .  S
C697        C698   1.435       .  A
C698        C699   1.525       .  S
C699        F703   1.385       .  S
C699        F704   1.377       .  S
C699        F705   1.383       .  S
C702        F706   1.381       .  S
C702        F707   1.383       .  S
C702        F708   1.385       .  S
C709        C710   1.411       .  A
C709        C714   1.404       .  A
C709        H716   1.083       .  S
C710        C979   1.423   1_554  A
C711        C978   1.420       .  A
C711        C712   1.410       .  A
C711        C718   1.517       .  S
C712        C981   1.403       .  A
C712        H717   1.083       .  S
C713        C980   1.402   1_554  A
C713        C714   1.412       .  A
C714        C715   1.520       .  S
C715        F719   1.385       .  S
C715        F720   1.382       .  S
C715        F721   1.383       .  S
C718        F722   1.381       .  S
C718        F723   1.378       .  S
C718        F724   1.385       .  S
C725        C726   1.402   1_554  A
C725        C730   1.403       .  A
C725        H732   1.085       .  S
C726        C995   1.418       .  A
C727        C994   1.416       .  A
C727        C728   1.415       .  A
C727        C734   1.516       .  S
C728        C997   1.411       .  A
C728        H733   1.083       .  S
C729        C996   1.407       .  A
C729        C730   1.419   1_556  A
C730        C731   1.516       .  S
C731        F735   1.385       .  S
C731        F736   1.378       .  S
C731        F737   1.382       .  S
C734        F738   1.379       .  S
C734        F739   1.383       .  S
C734        F740   1.384       .  S
C741       C1010   1.411       .  A
C741        C746   1.418       .  A
C741        H748   1.083       .  S
C742       C1009   1.410   1_554  A
C742        C743   1.419       .  A
C743        C744   1.402       .  A
C743        C750   1.516       .  S
C744        C745   1.412       .  A
C744        H749   1.081       .  S
C745       C1014   1.428   1_554  A
C746       C1013   1.428       .  A
C746        C747   1.517       .  S
C747        F751   1.385       .  S
C747        F752   1.380       .  S
C747        F753   1.382       .  S
C750        F754   1.380       .  S
C750        F755   1.381       .  S
C750        F756   1.386       .  S
C757       C1026   1.413       .  A
C757       C1030   1.404       .  A
C757        H764   1.083       .  S
C758       C1025   1.412       .  A
C758        C759   1.436   1_556  A
C758        C809   1.524       .  S
C759        C760   1.412   1_554  A
C759        C766   1.515       .  S
C760        C761   1.396       .  A
C760        H765   1.084   1_556  S
C761        C762   1.417       .  A
C762       C1025   1.403       .  A
C762        C763   1.519       .  S
C763        F767   1.383       .  S
C763        F768   1.384       .  S
C763       F1037   1.379       .  S
C766        F770   1.377       .  S
C766       F1039   1.380       .  S
C766       F1040   1.386       .  S
F769       C1031   1.378       .  S
F771       C1034   1.380       .  S
F772       C1034   1.386       .  S
C773       C1042   1.406       .  A
C773        C778   1.404       .  A
C773        H780   1.085       .  S
C774       C1041   1.406   1_554  A
C774        C775   1.420       .  A
C775        C776   1.410       .  A
C775        C782   1.521       .  S
C776        C777   1.407       .  A
C776        H781   1.084       .  S
C777       C1046   1.419   1_554  A
C778       C1045   1.417       .  A
C778        C779   1.517       .  S
C779        F783   1.384       .  S
C779       F1052   1.378       .  S
C779        F785   1.382       .  S
C782        F786   1.384       .  S
C782       F1055   1.382       .  S
C782        F788   1.385       .  S
F784       C1047   1.378       .  S
F787       C1050   1.383       .  S
C789        C790   1.409       .  A
C789        C794   1.398       .  A
C789        H796   1.083       .  S
C790       C1059   1.428   1_554  A
C791       C1058   1.428       .  A
C791        C792   1.417       .  A
C791        C798   1.517       .  S
C792       C1061   1.407       .  A
C792        H797   1.083       .  S
C793       C1060   1.408   1_554  A
C793        C794   1.414       .  A
C793        C805   1.499       .  S
C794        C795   1.515       .  S
C795        F799   1.385       .  S
C795       F1068   1.380       .  S
C795        F801   1.381       .  S
C798        F802   1.381       .  S
C798       F2143   1.380       .  S
C798        F804   1.385       .  S
F800       C1063   1.380       .  S
F803       C2138   1.379   1_455  S
C805        C810   1.416   1_554  A
C806        C807   1.398       .  A
C806        H811   1.084       .  S
C807        C808   1.401       .  A
C807       C1042   1.489       .  S
C808        H812   1.081       .  S
C809        C810   1.416       .  A
C810        H813   1.075       .  S
C814        C815   1.406       .  A
C814        C819   1.418       .  A
C814        C997   1.504       .  S
C815        C816   1.400       .  A
C815        H820   1.084       .  S
C816        C817   1.400       .  A
C816        C981   1.481       .  S
C817        C818   1.405       .  A
C817        H821   1.084       .  S
C818        C819   1.420       .  A
C818       C1010   1.506       .  S
C819        H822   1.081       .  S
C823        C824   1.537       .  S
C823        C829   1.546       .  S
C823        C827   1.518       .  S
C823        C965   1.543       .  S
C824        H831   1.082       .  S
C824        C825   1.379       .  D
C825       C1013   1.518       .  S
C826        C830   1.542       .  S
C826        H832   1.098       .  S
C827        H833   1.087       .  S
C827        C828   1.358       .  D
C828       C1045   1.482       .  S
C829        H834   1.082       .  S
C830        C946   1.494       .  S
C835       C1908   1.543       .  S
C835        C841   1.526       .  S
C835        C839   1.529       .  S
C835        C930   1.545       .  S
C836       C1907   1.543       .  S
C836        H843   1.083       .  S
C836        C837   1.371       .  D
C837       C1642   1.548       .  S
C837        C978   1.496       .  S
C838       C1641   1.552   1_556  S
C838        C842   1.546       .  S
C838       H1916   1.095       .  S
C839        H845   1.081       .  S
C839        C840   1.374       .  D
C840       C1058   1.511       .  S
C841        H846   1.087       .  S
C842        C917   1.489       .  S
H844       C1910   1.095       .  S
C847        C848   1.545   1_545  S
C847        C853   1.536       .  S
C847        C882   1.548       .  S
C848        H855   1.084       .  S
C848        C849   1.363       .  D
C849        C994   1.490       .  S
C850        C854   1.552   1_545  S
C850        H856   1.102   1_545  S
C851        H857   1.087       .  S
C851        C852   1.362       .  D
C852       C1029   1.484       .  S
C853        H858   1.084       .  S
C854        C901   1.506       .  S
O859       Cr877   1.955       .  S
O859        C867   1.254       .  A
O860      Cr1949   2.021   1_455  S
C861        C885   1.493       .  S
C861        O862   1.259       .  A
O862       Cr878   1.969       .  S
O863       Cr878   2.010       .  S
O863        C864   1.264   1_455  A
C864        C933   1.492   1_655  S
C864       O1937   1.259       .  A
O865       C1936   1.259       .  A
O866       Cr879   2.020   1_565  S
O866        C867   1.268       .  A
C867        C962   1.472       .  S
O868       Cr877   2.022       .  S
O868        C876   1.267       .  A
O869      Cr1949   1.957   1_455  S
C870        O871   1.269       .  A
O871       Cr878   2.014       .  S
O872       Cr878   1.963       .  S
O872        C873   1.261       .  A
C873        C914   1.498       .  S
C873       O1946   1.267   1_455  A
O874       C1945   1.268       .  A
O875       Cr879   1.966   1_565  S
O875        C876   1.261       .  A
C876        C949   1.499       .  S
Cr877      O1932   2.019       .  S
Cr877      O1941   1.958       .  S
Cr877      O1952   1.768       .  S
Cr879      O1952   1.766   1_545  S
O880      Cr1949   1.767       .  S
O880      Cr1951   1.765   1_565  S
C881        C886   1.410       .  A
C881        H888   1.076       .  S
C882        C883   1.429       .  A
C883        C884   1.404       .  A
C883        C890   1.521       .  S
C884        H889   1.084       .  S
C885        C886   1.416       .  A
C886        C887   1.521       .  S
C887        F893   1.384       .  S
C890        F894   1.382       .  S
C897        C902   1.409       .  A
C897        H904   1.083       .  S
C898        C899   1.419       .  A
C899        C900   1.402       .  A
C899        C906   1.524       .  S
C900        C901   1.410       .  A
C900        H905   1.082       .  S
C902        C903   1.516       .  S
C903        F909   1.370       .  S
C906        F910   1.382   1_455  S
C913        C914   1.406       .  A
C913        C918   1.399       .  A
C913        H920   1.084       .  S
C914       C1987   1.427   1_455  A
C915       C1986   1.426       .  A
C915        C916   1.415       .  A
C915        C922   1.520       .  S
C916        C917   1.404       .  A
C916        H921   1.083       .  S
C917       C1990   1.420       .  A
C918       C1989   1.420       .  A
C918        C919   1.524       .  S
C919        F923   1.384       .  S
C919        F925   1.380       .  S
C922        F926   1.383       .  S
C922        F927   1.384       .  S
C922        F928   1.385       .  S
C929       C2002   1.414       .  A
C929        C934   1.407       .  A
C929        H936   1.073       .  S
C930       C2001   1.414       .  A
C930        C931   1.436       .  A
C931        C932   1.405       .  A
C931        C938   1.532       .  S
C932       C2005   1.402       .  A
C932        H937   1.083       .  S
C933       C2004   1.402   1_455  A
C933        C934   1.418       .  A
C934        C935   1.524       .  S
C935        F939   1.385       .  S
C935        F940   1.383       .  S
C935        F941   1.383       .  S
C938        F942   1.378       .  S
C938        F943   1.382       .  S
C938        F944   1.386       .  S
C945        C946   1.402       .  A
C945        C950   1.415       .  A
C945        H952   1.081       .  S
C946        C947   1.419       .  A
C947        C948   1.399       .  A
C947        C954   1.521       .  S
C948        C949   1.407       .  A
C948        H953   1.084       .  S
C949        C950   1.427       .  A
C950        C951   1.519       .  S
C951        F955   1.385       .  S
C951        F956   1.383       .  S
C951        F957   1.384       .  S
C954        F960   1.384       .  S
C961        C962   1.397       .  A
C961        C966   1.407       .  A
C961        H968   1.085       .  S
C962        C963   1.412       .  A
C963        C964   1.401       .  A
C963        C970   1.523       .  S
C964        C965   1.414       .  A
C964        H969   1.077       .  S
C965        C966   1.434       .  A
C966        C967   1.524       .  S
C967        F971   1.385       .  S
C967        F972   1.378       .  S
C967        F973   1.383       .  S
C970        F974   1.381       .  S
C970        F975   1.384       .  S
C970        F976   1.385       .  S
C977        C978   1.409       .  A
C977        C982   1.403       .  A
C977        H984   1.083       .  S
C979        C980   1.412       .  A
C979        C986   1.517       .  S
C980        H985   1.083       .  S
C981        C982   1.413       .  A
C982        C983   1.520       .  S
C983        F987   1.385       .  S
C983        F988   1.381       .  S
C983        F989   1.383       .  S
C986        F990   1.380       .  S
C986        F991   1.376       .  S
C986        F992   1.385       .  S
C993        C994   1.397       .  A
C993        C998   1.403       .  A
C993       H1000   1.084       .  S
C995        C996   1.412       .  A
C995       C1002   1.516       .  S
C996       H1001   1.083       .  S
C997        C998   1.423       .  A
C998        C999   1.510       .  S
C999       F1003   1.385       .  S
C999       F1004   1.374       .  S
C999       F1005   1.383       .  S
C1002      F1006   1.378       .  S
C1002      F1007   1.383       .  S
C1002      F1008   1.385       .  S
C1009      C1014   1.418       .  A
C1009      H1016   1.083       .  S
C1010      C1011   1.416       .  A
C1011      C1012   1.397       .  A
C1011      C1018   1.511       .  S
C1012      C1013   1.409       .  A
C1012      H1017   1.081       .  S
C1014      C1015   1.516       .  S
C1015      F1019   1.385       .  S
C1015      F1020   1.381       .  S
C1015      F1021   1.382       .  S
C1018      F1022   1.376       .  S
C1018      F1023   1.382       .  S
C1018      F1024   1.385       .  S
C1025      H1032   1.083       .  S
C1026      C1027   1.435       .  A
C1027      C1028   1.411       .  A
C1027      C1034   1.516       .  S
C1028      C1029   1.397       .  A
C1028      H1033   1.083       .  S
C1029      C1030   1.415       .  A
C1030      C1031   1.519       .  S
C1031      F1035   1.383       .  S
C1031      F1036   1.384       .  S
C1034      F1038   1.377       .  S
C1041      C1046   1.407       .  A
C1041      H1048   1.085       .  S
C1042      C1043   1.420       .  A
C1043      C1044   1.407       .  A
C1043      C1050   1.520       .  S
C1044      C1045   1.405       .  A
C1044      H1049   1.085       .  S
C1046      C1047   1.517       .  S
C1047      F1051   1.385       .  S
C1047      F1053   1.382       .  S
C1050      F1054   1.382       .  S
C1050      F1056   1.384       .  S
C1057      C1058   1.408       .  A
C1057      C1062   1.396       .  A
C1057      H1064   1.082       .  S
C1059      C1060   1.417       .  A
C1059      C1066   1.516       .  S
C1060      H1065   1.083       .  S
C1061      C1062   1.413       .  A
C1062      C1063   1.515       .  S
C1063      F1067   1.385       .  S
C1063      F1069   1.381       .  S
C1066      F1070   1.380       .  S
C1066      F1875   1.379       .  S
C1066      F1072   1.385       .  S
F1071      C1870   1.380   1_455  S
C1073      C1342   1.401       .  A
C1073      C1078   1.417       .  A
C1073      C1597   1.499       .  S
C1074      C1341   1.404       .  A
C1074      C1075   1.400       .  A
C1074      H1079   1.084       .  S
C1075      C1076   1.402       .  A
C1075      C1310   1.495       .  S
C1076      C1345   1.420   1_554  A
C1076      H1080   1.078       .  S
C1077      C1344   1.417       .  A
C1077      C1078   1.419       .  A
C1077      C1562   1.525       .  S
C1078      H1081   1.072       .  S
C1082      C1083   1.404       .  A
C1082      C1087   1.415       .  A
C1082      C1265   1.497   1_554  S
C1083      C1084   1.399       .  A
C1083      H1088   1.084       .  S
C1084      C1085   1.402       .  A
C1084      C1249   1.483       .  S
C1085      C1086   1.409       .  A
C1085      H1089   1.084       .  S
C1086      C1087   1.420       .  A
C1086      C1278   1.510       .  S
C1087      H1090   1.081   1_554  S
C1091      C1092   1.534       .  S
C1091      C1097   1.545       .  S
C1091      C1095   1.517       .  S
C1091      C1233   1.541       .  S
C1092      H1099   1.083       .  S
C1092      C1093   1.377       .  D
C1093      C1362   1.560   1_554  S
C1093      C1281   1.524       .  S
C1094      C1361   1.551       .  S
C1094      C1098   1.538       .  S
C1094      C1364   1.558       .  S
C1094      H1100   1.102       .  S
C1095      H1101   1.087       .  S
C1095      C1096   1.358       .  D
C1096      C1362   1.565   1_554  S
C1096      C1313   1.491       .  S
C1097      H1102   1.080       .  S
C1097      C1366   1.362   1_554  D
C1098      C1365   1.363       .  D
C1098      C1214   1.489       .  S
C1103      C1109   1.528       .  S
C1103      C1107   1.528   1_455  S
C1103      C1198   1.549   1_455  S
C1104      H1111   1.080       .  S
C1104      C1105   1.370       .  D
C1105      C1246   1.503       .  S
C1106      C1110   1.544       .  S
C1106      C1376   1.550   1_455  S
C1107      H1113   1.084       .  S
C1107      C1108   1.374       .  D
C1108      C1374   1.553   1_654  S
C1108      C1326   1.516       .  S
C1109      H1114   1.087       .  S
C1109      C1378   1.360   1_554  D
C1110      C1377   1.357       .  D
C1110      C1185   1.486       .  S
C1115      C1116   1.545       .  S
C1115      C1121   1.532   1_554  S
C1115      C1655   1.528       .  S
C1115      C1150   1.545       .  S
C1116      H1123   1.084       .  S
C1116      C1117   1.363   1_554  D
C1117      C1386   1.542       .  S
C1117      C1262   1.495       .  S
C1118      C1385   1.539       .  S
C1118      C1122   1.554       .  S
C1118      C1924   1.548       .  S
C1118      H1124   1.101       .  S
C1119      C1651   1.528       .  S
C1119      H1125   1.087       .  S
C1119      C1120   1.362   1_554  D
C1120      C1922   1.549       .  S
C1120      C1297   1.484       .  S
C1121      H1126   1.084       .  S
C1121      C1390   1.376       .  D
C1122      C1389   1.377       .  D
C1122      C1169   1.509       .  S
O1127     Cr1145   1.947       .  S
O1127      C1135   1.253       .  A
O1128      C1665   1.268       .  A
C1129      C1153   1.486   1_565  S
C1129      O1664   1.269       .  A
C1129      O1130   1.257   1_565  A
O1130     Cr1146   1.960       .  S
O1131     Cr1146   2.010       .  S
O1131      C1132   1.263       .  A
C1132      C1201   1.497       .  S
O1133     Cr1683   1.967   1_545  S
O1134     Cr1147   2.021       .  S
O1134      C1135   1.268       .  A
C1135      C1230   1.469       .  S
O1136     Cr1145   2.022       .  S
O1136      C1144   1.267       .  A
O1137      C1674   1.255       .  A
C1138      C1702   1.491       .  S
C1138      O1673   1.255       .  A
C1138      O1139   1.269   1_565  A
O1139     Cr1146   2.017       .  S
O1140     Cr1146   1.955       .  S
O1140      C1141   1.260       .  A
C1141      C1182   1.495       .  S
O1142     Cr1683   2.025   1_545  S
O1143     Cr1147   1.960       .  S
O1143      C1144   1.259       .  A
C1144      C1217   1.497       .  S
Cr1146     O1684   1.760   1_545  S
Cr1147     O1669   1.967       .  S
Cr1147     O1678   2.025       .  S
O1148     Cr1682   1.760       .  S
C1149      C1686   1.415   1_565  A
C1149      C1154   1.407       .  A
C1149      H1156   1.078       .  S
C1150      C1685   1.416       .  A
C1150      C1151   1.430       .  A
C1151      C1152   1.404       .  A
C1151      C1158   1.522       .  S
C1152      C1689   1.403       .  A
C1152      H1157   1.085       .  S
C1153      C1688   1.403       .  A
C1153      C1154   1.413   1_545  A
C1154      C1155   1.520       .  S
C1155      F1695   1.385       .  S
C1155      F1696   1.383       .  S
C1155      F1161   1.383       .  S
C1158      F1162   1.383       .  S
C1158      F1699   1.376       .  S
C1158      F1700   1.385       .  S
F1159      C1691   1.385       .  S
F1160      C1691   1.383       .  S
F1163      C1694   1.376       .  S
F1164      C1694   1.385       .  S
C1165      C1702   1.404   1_545  A
C1165      C1170   1.409       .  A
C1165      H1172   1.082       .  S
C1166      C1701   1.404       .  A
C1166      C1167   1.422       .  A
C1166      C1674   1.492       .  S
C1167      C1168   1.406       .  A
C1167      C1174   1.524       .  S
C1168      C1169   1.410       .  A
C1168      H1173   1.082       .  S
C1169      C1706   1.424       .  A
C1170      C1705   1.424   1_545  A
C1170      C1171   1.517       .  S
C1171      F1711   1.385       .  S
C1171      F1712   1.380       .  S
C1171      F1177   1.371       .  S
C1174      F1178   1.383       .  S
C1174      F1715   1.384       .  S
C1174      F1716   1.385       .  S
F1175      C1707   1.385       .  S
F1176      C1707   1.380       .  S
F1179      C1710   1.384       .  S
F1180      C1710   1.385       .  S
C1181      C1182   1.406       .  A
C1181      C1186   1.398       .  A
C1181      H1188   1.084       .  S
C1183      C1184   1.413       .  A
C1183      C1190   1.519       .  S
C1184      C1185   1.404   1_655  A
C1184      H1189   1.083       .  S
C1186      C1187   1.524       .  S
C1187      F1191   1.385       .  S
C1187      F1460   1.382       .  S
C1187      F1193   1.380       .  S
C1190      F1194   1.383       .  S
C1190      F1195   1.384       .  S
C1190      F1196   1.385       .  S
F1192      C1455   1.382       .  S
C1197      C1202   1.407       .  A
C1197      H1204   1.070       .  S
C1198      C1199   1.437       .  A
C1199      C1200   1.407       .  A
C1199      C1206   1.534       .  S
C1200      H1205   1.082       .  S
C1201      C1202   1.419       .  A
C1202      C1203   1.524       .  S
C1203      F1207   1.385       .  S
C1203      F1208   1.383       .  S
C1203      F1209   1.384       .  S
C1206      F1210   1.376       .  S
C1206      F1211   1.382       .  S
C1206      F1212   1.386       .  S
C1213      C1214   1.402       .  A
C1213      C1218   1.413       .  A
C1213      H1220   1.080       .  S
C1214      C1215   1.416       .  A
C1215      C1216   1.398       .  A
C1215      C1222   1.520       .  S
C1216      C1217   1.408       .  A
C1216      H1221   1.084       .  S
C1217      C1218   1.426       .  A
C1218      C1219   1.519       .  S
C1219      F1223   1.384       .  S
C1219      F1224   1.383       .  S
C1219      F1225   1.384       .  S
C1222      F1494   1.383       .  S
C1222      F1495   1.380       .  S
C1222      F1228   1.384       .  S
F1226      C1490   1.383       .  S
F1227      C1490   1.381       .  S
C1229      C1230   1.396       .  A
C1229      C1234   1.408       .  A
C1229      H1236   1.085       .  S
C1230      C1231   1.411       .  A
C1231      C1232   1.397       .  A
C1231      C1238   1.522       .  S
C1232      C1233   1.412       .  A
C1232      H1237   1.076       .  S
C1233      C1234   1.436       .  A
C1234      C1235   1.525       .  S
C1235      F1239   1.385       .  S
C1235      F1240   1.377       .  S
C1235      F1241   1.383       .  S
C1238      F1242   1.381       .  S
C1238      F1243   1.384       .  S
C1238      F1244   1.385       .  S
C1245      C1246   1.411       .  A
C1245      C1250   1.405       .  A
C1245      H1252   1.083       .  S
C1246      C1515   1.422   1_554  A
C1247      C1514   1.420       .  A
C1247      C1248   1.409       .  A
C1247      C1254   1.517       .  S
C1248      C1517   1.402       .  A
C1248      H1253   1.083       .  S
C1249      C1516   1.402   1_554  A
C1249      C1250   1.412       .  A
C1250      C1251   1.520       .  S
C1251      F1255   1.385       .  S
C1251      F1256   1.382       .  S
C1251      F1257   1.384       .  S
C1254      F1258   1.380       .  S
C1254      F1259   1.377       .  S
C1254      F1260   1.385       .  S
C1261      C1262   1.402   1_554  A
C1261      C1266   1.404       .  A
C1261      H1268   1.084       .  S
C1262      C1531   1.419       .  A
C1263      C1530   1.416       .  A
C1263      C1264   1.415       .  A
C1263      C1270   1.516       .  S
C1264      C1533   1.410       .  A
C1264      H1269   1.083       .  S
C1265      C1532   1.408       .  A
C1265      C1266   1.419   1_556  A
C1266      C1267   1.514       .  S
C1267      F1271   1.385       .  S
C1267      F1272   1.376       .  S
C1267      F1273   1.383       .  S
C1270      F1274   1.379       .  S
C1270      F1275   1.383       .  S
C1270      F1276   1.384       .  S
C1277      C1546   1.412       .  A
C1277      C1282   1.417       .  A
C1277      H1284   1.083       .  S
C1278      C1545   1.411   1_554  A
C1278      C1279   1.417       .  A
C1279      C1280   1.402       .  A
C1279      C1286   1.515       .  S
C1280      C1281   1.413       .  A
C1280      H1285   1.081       .  S
C1281      C1550   1.428   1_554  A
C1282      C1549   1.426       .  A
C1282      C1283   1.517       .  S
C1283      F1287   1.385       .  S
C1283      F1288   1.379       .  S
C1283      F1289   1.382       .  S
C1286      F1290   1.380       .  S
C1286      F1291   1.381       .  S
C1286      F1292   1.385       .  S
C1293      C1562   1.414       .  A
C1293      C1566   1.404       .  A
C1293      H1300   1.083       .  S
C1294      C1561   1.414       .  A
C1294      C1295   1.438   1_556  A
C1294      C1345   1.527       .  S
C1295      C1296   1.412   1_554  A
C1295      C1302   1.515       .  S
C1296      C1297   1.395       .  A
C1296      H1301   1.084   1_556  S
C1297      C1298   1.415       .  A
C1298      C1561   1.404       .  A
C1298      C1299   1.519       .  S
C1299      F1303   1.383       .  S
C1299      F1304   1.384       .  S
C1299      F1573   1.379       .  S
C1302      F1306   1.376       .  S
C1302      F1575   1.380   1_554  S
C1302      F1576   1.386       .  S
F1305      C1567   1.378       .  S
F1307      C1570   1.380       .  S
F1308      C1570   1.386       .  S
C1309      C1578   1.406       .  A
C1309      C1314   1.405       .  A
C1309      H1316   1.085       .  S
C1310      C1577   1.406   1_554  A
C1310      C1311   1.419       .  A
C1311      C1312   1.410       .  A
C1311      C1318   1.521       .  S
C1312      C1313   1.408       .  A
C1312      H1317   1.084       .  S
C1313      C1582   1.420   1_554  A
C1314      C1581   1.417       .  A
C1314      C1315   1.517       .  S
C1315      F1319   1.384       .  S
C1315      F1588   1.378       .  S
C1315      F1321   1.383       .  S
C1318      F1322   1.384       .  S
C1318      F1591   1.381       .  S
C1318      F1324   1.385       .  S
F1320      C1583   1.378       .  S
F1323      C1586   1.383       .  S
C1325      C1326   1.409       .  A
C1325      C1330   1.398       .  A
C1325      H1332   1.083       .  S
C1326      C1595   1.429   1_554  A
C1327      C1594   1.429       .  A
C1327      C1328   1.418       .  A
C1327      C1334   1.517       .  S
C1328      C1597   1.409       .  A
C1328      H1333   1.083       .  S
C1329      C1596   1.407   1_554  A
C1329      C1330   1.414       .  A
C1329      C1341   1.500       .  S
C1330      C1331   1.515       .  S
C1331      F1335   1.385       .  S
C1331      F1604   1.380       .  S
C1331      F1337   1.381       .  S
C1334      F1338   1.381       .  S
C1334      F1340   1.385       .  S
F1336      C1599   1.380       .  S
C1341      C1346   1.416   1_554  A
C1342      C1343   1.399       .  A
C1342      H1347   1.084       .  S
C1343      C1344   1.401       .  A
C1343      C1578   1.490       .  S
C1344      H1348   1.081       .  S
C1345      C1346   1.417       .  A
C1346      H1349   1.073       .  S
C1350      C1351   1.407       .  A
C1350      C1355   1.417       .  A
C1350      C1533   1.503       .  S
C1351      C1352   1.400       .  A
C1351      H1356   1.083       .  S
C1352      C1353   1.400       .  A
C1352      C1517   1.481       .  S
C1353      C1354   1.404       .  A
C1353      H1357   1.084       .  S
C1354      C1355   1.419       .  A
C1354      C1546   1.503       .  S
C1355      H1358   1.081       .  S
C1359      C1360   1.535       .  S
C1359      C1365   1.546       .  S
C1359      C1363   1.517       .  S
C1359      C1501   1.541       .  S
C1360      H1367   1.081       .  S
C1360      C1361   1.377       .  D
C1361      C1549   1.515       .  S
C1362      C1366   1.543       .  S
C1362      H1368   1.099       .  S
C1363      H1369   1.087       .  S
C1363      C1364   1.358       .  D
C1364      C1581   1.482       .  S
C1365      H1370   1.082       .  S
C1366      C1482   1.496       .  S
C1371      C1377   1.523       .  S
C1371      C1375   1.531   1_455  S
C1371      C1466   1.543       .  S
C1372      H1379   1.084       .  S
C1372      C1373   1.370       .  D
C1373      C1514   1.497       .  S
C1374      C1378   1.545       .  S
C1375      H1381   1.082       .  S
C1375      C1376   1.375       .  D
C1376      C1594   1.512       .  S
C1377      H1382   1.087       .  S
C1378      C1453   1.488       .  S
C1383      C1384   1.548       .  S
C1383      C1389   1.535       .  S
C1383      C1923   1.530       .  S
C1383      C1418   1.552       .  S
C1384      H1391   1.083       .  S
C1384      C1385   1.364       .  D
C1385      C1530   1.492       .  S
C1386      C1390   1.553       .  S
C1386      C1656   1.549       .  S
C1386      H1392   1.101       .  S
C1387      C1919   1.529       .  S
C1387      H1393   1.087       .  S
C1387      C1388   1.362       .  D
C1388      C1654   1.548       .  S
C1388      C1565   1.484       .  S
C1389      H1394   1.084       .  S
C1390      C1437   1.506       .  S
O1395     Cr1413   1.952       .  S
O1395      C1403   1.253       .  A
O1396      C1933   1.269       .  A
C1397      C1421   1.489       .  S
C1397      O1932   1.266   1_545  A
C1397      O1398   1.257       .  A
O1398     Cr1414   1.965       .  S
O1399     Cr1414   2.014       .  S
O1399      C1400   1.265       .  A
C1400      C1469   1.494       .  S
O1401     Cr1951   1.966       .  S
O1402     Cr1415   2.018       .  S
O1402      C1403   1.267       .  A
C1403      C1498   1.470       .  S
O1404     Cr1413   2.029       .  S
O1404      C1412   1.270       .  A
O1405      C1942   1.254       .  A
C1406      C1970   1.485       .  S
C1406      O1941   1.255       .  A
C1406      O1407   1.269   1_565  A
O1407     Cr1414   2.014       .  S
O1408     Cr1414   1.965       .  S
O1408      C1409   1.261       .  A
C1409      C1450   1.502       .  S
O1410     Cr1951   2.025       .  S
O1411     Cr1415   1.962       .  S
O1411      C1412   1.260       .  A
C1412      C1485   1.501       .  S
Cr1414     O1952   1.762   1_545  S
Cr1415     O1937   1.964       .  S
Cr1415     O1946   2.024       .  S
O1416     Cr1950   1.762       .  S
C1417      C1954   1.417   1_565  A
C1417      C1422   1.409       .  A
C1417      H1424   1.077       .  S
C1418      C1953   1.416       .  A
C1418      C1419   1.432       .  A
C1419      C1420   1.408       .  A
C1419      C1426   1.522       .  S
C1420      C1957   1.404       .  A
C1420      H1425   1.085       .  S
C1421      C1956   1.403       .  A
C1421      C1422   1.415   1_545  A
C1422      C1423   1.521       .  S
C1423      F1963   1.385       .  S
C1423      F1964   1.383       .  S
C1423      F1429   1.383       .  S
C1426      F1430   1.382       .  S
C1426      F1967   1.374       .  S
C1426      F1968   1.385       .  S
F1427      C1959   1.385       .  S
F1428      C1959   1.382       .  S
F1431      C1962   1.375       .  S
F1432      C1962   1.385       .  S
C1433      C1970   1.404   1_545  A
C1433      C1438   1.409       .  A
C1433      H1440   1.083       .  S
C1434      C1969   1.404       .  A
C1434      C1435   1.421       .  A
C1434      C1942   1.487       .  S
C1435      C1436   1.403       .  A
C1435      C1442   1.524       .  S
C1436      C1437   1.409       .  A
C1436      H1441   1.082       .  S
C1437      C1974   1.424       .  A
C1438      C1973   1.424   1_545  A
C1438      C1439   1.517       .  S
C1439      F1979   1.385       .  S
C1439      F1980   1.380       .  S
C1439      F1445   1.370       .  S
C1442      F1446   1.383       .  S
C1442      F1983   1.384       .  S
C1442      F1984   1.385       .  S
F1443      C1975   1.385       .  S
F1444      C1975   1.380       .  S
F1447      C1978   1.384       .  S
F1448      C1978   1.385       .  S
C1449      C1450   1.407       .  A
C1449      C1454   1.400       .  A
C1449      H1456   1.084       .  S
C1451      C1452   1.415       .  A
C1451      C1458   1.520       .  S
C1452      C1453   1.404   1_655  A
C1452      H1457   1.083       .  S
C1454      C1455   1.524       .  S
C1455      F1459   1.384       .  S
C1455      F1461   1.380       .  S
C1458      F1462   1.383       .  S
C1458      F1463   1.384       .  S
C1458      F1464   1.385       .  S
C1465      C1470   1.407       .  A
C1465      H1472   1.076       .  S
C1466      C1467   1.434   1_455  A
C1467      C1468   1.405       .  A
C1467      C1474   1.530       .  S
C1468      H1473   1.083       .  S
C1469      C1470   1.419       .  A
C1470      C1471   1.522       .  S
C1471      F1475   1.385       .  S
C1471      F1476   1.380       .  S
C1471      F1477   1.382       .  S
C1474      F1478   1.378       .  S
C1474      F1479   1.382       .  S
C1474      F1480   1.386       .  S
C1481      C1482   1.403       .  A
C1481      C1486   1.416       .  A
C1481      H1488   1.080       .  S
C1482      C1483   1.419       .  A
C1483      C1484   1.400       .  A
C1483      C1490   1.521       .  S
C1484      C1485   1.408       .  A
C1484      H1489   1.084       .  S
C1485      C1486   1.426       .  A
C1486      C1487   1.518       .  S
C1487      F1491   1.384       .  S
C1487      F1492   1.383       .  S
C1487      F1493   1.384       .  S
C1490      F1496   1.384       .  S
C1497      C1498   1.397       .  A
C1497      C1502   1.407       .  A
C1497      H1504   1.085       .  S
C1498      C1499   1.411       .  A
C1499      C1500   1.399       .  A
C1499      C1506   1.523       .  S
C1500      C1501   1.413       .  A
C1500      H1505   1.077       .  S
C1501      C1502   1.434       .  A
C1502      C1503   1.525       .  S
C1503      F1507   1.385       .  S
C1503      F1508   1.378       .  S
C1503      F1509   1.383       .  S
C1506      F1510   1.381   1_655  S
C1506      F1511   1.384       .  S
C1506      F1512   1.385       .  S
C1513      C1514   1.410       .  A
C1513      C1518   1.406       .  A
C1513      H1520   1.083       .  S
C1515      C1516   1.412       .  A
C1515      C1522   1.516       .  S
C1516      H1521   1.083       .  S
C1517      C1518   1.413       .  A
C1518      C1519   1.520       .  S
C1519      F1523   1.385       .  S
C1519      F1524   1.381       .  S
C1519      F1525   1.383       .  S
C1522      F1526   1.380       .  S
C1522      F1527   1.376       .  S
C1522      F1528   1.385       .  S
C1529      C1530   1.399       .  A
C1529      C1534   1.404       .  A
C1529      H1536   1.083       .  S
C1531      C1532   1.415       .  A
C1531      C1538   1.517       .  S
C1532      H1537   1.083       .  S
C1533      C1534   1.422       .  A
C1534      C1535   1.512       .  S
C1535      F1539   1.385       .  S
C1535      F1540   1.376       .  S
C1535      F1541   1.382       .  S
C1538      F1542   1.378       .  S
C1538      F1543   1.383       .  S
C1538      F1544   1.385       .  S
C1545      C1550   1.419       .  A
C1545      H1552   1.083       .  S
C1546      C1547   1.415       .  A
C1547      C1548   1.396       .  A
C1547      C1554   1.513       .  S
C1548      C1549   1.409       .  A
C1548      H1553   1.081       .  S
C1550      C1551   1.516       .  S
C1551      F1555   1.385       .  S
C1551      F1556   1.381       .  S
C1551      F1557   1.382       .  S
C1554      F1558   1.376       .  S
C1554      F1559   1.382       .  S
C1554      F1560   1.385       .  S
C1561      H1568   1.083       .  S
C1562      C1563   1.436       .  A
C1563      C1564   1.412       .  A
C1563      C1570   1.514       .  S
C1564      C1565   1.396       .  A
C1564      H1569   1.083       .  S
C1565      C1566   1.415       .  A
C1566      C1567   1.519       .  S
C1567      F1571   1.383       .  S
C1567      F1572   1.384       .  S
C1570      F1574   1.376       .  S
C1577      C1582   1.408       .  A
C1577      H1584   1.085       .  S
C1578      C1579   1.420       .  A
C1579      C1580   1.407       .  A
C1579      C1586   1.520       .  S
C1580      C1581   1.405       .  A
C1580      H1585   1.085       .  S
C1582      C1583   1.517       .  S
C1583      F1587   1.385       .  S
C1583      F1589   1.382       .  S
C1586      F1590   1.382       .  S
C1586      F1592   1.385       .  S
C1593      C1594   1.407       .  A
C1593      C1598   1.396       .  A
C1593      H1600   1.082       .  S
C1595      C1596   1.417       .  A
C1595      C1602   1.516       .  S
C1596      H1601   1.083       .  S
C1597      C1598   1.413       .  A
C1598      C1599   1.514       .  S
C1599      F1603   1.385       .  S
C1599      F1605   1.381       .  S
C1602      F1606   1.381       .  S
C1602      F1608   1.385       .  S
C1609      C1878   1.399       .  A
C1609      C1614   1.415       .  A
C1609      C2133   1.494       .  S
C1610      C1877   1.404       .  A
C1610      C1611   1.401       .  A
C1610      H1615   1.084       .  S
C1611      C1612   1.402       .  A
C1611      C1846   1.496       .  S
C1612      C1881   1.419   1_554  A
C1612      H1616   1.078       .  S
C1613      C1880   1.417       .  A
C1613      C1614   1.417       .  A
C1613      C2098   1.523       .  S
C1614      H1617   1.073       .  S
C1618      C1619   1.403       .  A
C1618      C1623   1.413       .  A
C1618      C1801   1.495   1_554  S
C1619      C1620   1.398       .  A
C1619      H1624   1.084       .  S
C1620      C1621   1.403       .  A
C1620      C1785   1.483       .  S
C1621      C1622   1.411       .  A
C1621      H1625   1.084       .  S
C1622      C1623   1.419       .  A
C1622      C1814   1.510       .  S
C1623      H1626   1.080   1_554  S
C1627      C1628   1.534       .  S
C1627      C1633   1.545       .  S
C1627      C1631   1.516       .  S
C1627      C1769   1.537       .  S
C1628      H1635   1.084       .  S
C1628      C1629   1.378       .  D
C1629      C1898   1.558   1_554  S
C1629      C1817   1.523       .  S
C1630      C1897   1.552       .  S
C1630      C1634   1.537       .  S
C1630      C1900   1.557       .  S
C1630      H1636   1.102       .  S
C1631      H1637   1.087       .  S
C1631      C1632   1.357       .  D
C1632      C1898   1.564   1_554  S
C1632      C1849   1.489       .  S
C1633      H1638   1.081       .  S
C1633      C1902   1.361   1_554  D
C1634      C1901   1.363       .  D
C1634      C1750   1.490       .  S
C1639      C1645   1.527       .  S
C1639      C1643   1.528   1_455  S
C1639      C1734   1.548   1_455  S
C1640      H1647   1.080       .  S
C1640      C1641   1.370       .  D
C1641      C1782   1.504       .  S
C1642      C1646   1.542       .  S
C1642      C1912   1.550   1_455  S
C1643      H1649   1.084       .  S
C1643      C1644   1.373       .  D
C1644      C1910   1.552   1_654  S
C1644      C1862   1.513       .  S
C1645      H1650   1.087       .  S
C1645      C1914   1.360   1_554  D
C1646      C1913   1.359       .  D
C1646      C1721   1.487       .  S
C1651      C1652   1.545   1_545  S
C1651      C1657   1.531   1_544  S
C1651      C1686   1.545       .  S
C1652      H1659   1.084       .  S
C1652      C1653   1.363   1_554  D
C1653      C1922   1.540   1_565  S
C1653      C1798   1.493       .  S
C1654      C1921   1.539   1_545  S
C1654      C1658   1.552       .  S
C1654      H1660   1.101       .  S
C1655      H1661   1.087       .  S
C1655      C1656   1.362   1_554  D
C1656      C1833   1.485       .  S
C1657      H1662   1.083       .  S
C1657      C1926   1.376       .  D
C1658      C1925   1.377       .  D
C1658      C1705   1.508   1_545  S
O1663     Cr1681   1.945       .  S
O1663      C1671   1.252       .  A
C1665      C1689   1.484       .  S
C1665      O1666   1.257       .  A
O1666     Cr1682   1.959       .  S
O1667     Cr1682   2.012       .  S
O1667      C1668   1.264       .  A
C1668      C1737   1.497       .  S
O1670     Cr1683   2.019       .  S
O1670      C1671   1.268       .  A
C1671      C1766   1.466       .  S
O1672     Cr1681   2.026       .  S
O1672      C1680   1.268       .  A
C1674      O1675   1.270       .  A
O1675     Cr1682   2.018       .  S
O1676     Cr1682   1.955       .  S
O1676      C1677   1.259       .  A
C1677      C1718   1.494       .  S
O1679     Cr1683   1.961       .  S
O1679      C1680   1.259       .  A
C1680      C1753   1.499       .  S
C1685      C1690   1.407       .  A
C1685      H1692   1.078       .  S
C1686      C1687   1.430       .  A
C1687      C1688   1.404       .  A
C1687      C1694   1.522       .  S
C1688      H1693   1.085       .  S
C1689      C1690   1.413       .  A
C1690      C1691   1.520       .  S
C1691      F1697   1.383       .  S
C1694      F1698   1.383       .  S
C1701      C1706   1.409       .  A
C1701      H1708   1.082       .  S
C1702      C1703   1.421       .  A
C1703      C1704   1.405       .  A
C1703      C1710   1.524       .  S
C1704      C1705   1.410       .  A
C1704      H1709   1.082       .  S
C1706      C1707   1.517       .  S
C1707      F1713   1.371       .  S
C1710      F1714   1.383       .  S
C1717      C1718   1.407       .  A
C1717      C1722   1.398       .  A
C1717      H1724   1.084       .  S
C1719      C1720   1.412       .  A
C1719      C1726   1.519       .  S
C1720      C1721   1.403   1_655  A
C1720      H1725   1.083       .  S
C1722      C1723   1.524       .  S
C1723      F1727   1.385       .  S
C1723      F1996   1.382       .  S
C1723      F1729   1.380       .  S
C1726      F1730   1.383       .  S
C1726      F1731   1.384       .  S
C1726      F1732   1.385       .  S
F1728      C1991   1.382       .  S
C1733      C1738   1.407       .  A
C1733      H1740   1.070       .  S
C1734      C1735   1.437       .  A
C1735      C1736   1.407       .  A
C1735      C1742   1.534       .  S
C1736      H1741   1.083       .  S
C1737      C1738   1.419       .  A
C1738      C1739   1.524       .  S
C1739      F1743   1.385       .  S
C1739      F1744   1.383       .  S
C1739      F1745   1.384       .  S
C1742      F1746   1.376       .  S
C1742      F1747   1.382       .  S
C1742      F1748   1.386       .  S
C1749      C1750   1.402       .  A
C1749      C1754   1.414       .  A
C1749      H1756   1.080       .  S
C1750      C1751   1.415       .  A
C1751      C1752   1.399       .  A
C1751      C1758   1.520       .  S
C1752      C1753   1.409       .  A
C1752      H1757   1.084       .  S
C1753      C1754   1.427       .  A
C1754      C1755   1.519       .  S
C1755      F1759   1.384       .  S
C1755      F1760   1.382       .  S
C1755      F1761   1.383       .  S
C1758      F2030   1.383       .  S
C1758      F2031   1.381       .  S
C1758      F1764   1.384       .  S
F1762      C2026   1.383       .  S
F1763      C2026   1.381       .  S
C1765      C1766   1.396       .  A
C1765      C1770   1.407       .  A
C1765      H1772   1.085       .  S
C1766      C1767   1.411       .  A
C1767      C1768   1.396       .  A
C1767      C1774   1.522       .  S
C1768      C1769   1.412       .  A
C1768      H1773   1.076       .  S
C1769      C1770   1.435       .  A
C1770      C1771   1.525       .  S
C1771      F1775   1.385       .  S
C1771      F1776   1.377       .  S
C1771      F1777   1.383       .  S
C1774      F1778   1.381       .  S
C1774      F1779   1.383       .  S
C1774      F1780   1.385       .  S
C1781      C1782   1.411       .  A
C1781      C1786   1.404       .  A
C1781      H1788   1.083       .  S
C1782      C2051   1.423   1_554  A
C1783      C2050   1.421       .  A
C1783      C1784   1.410       .  A
C1783      C1790   1.517       .  S
C1784      C2053   1.403       .  A
C1784      H1789   1.083       .  S
C1785      C2052   1.402   1_554  A
C1785      C1786   1.411       .  A
C1786      C1787   1.520       .  S
C1787      F1791   1.385       .  S
C1787      F1792   1.382       .  S
C1787      F1793   1.383       .  S
C1790      F1794   1.380       .  S
C1790      F1795   1.378       .  S
C1790      F1796   1.385       .  S
C1797      C1798   1.401   1_554  A
C1797      C1802   1.403       .  A
C1797      H1804   1.084       .  S
C1798      C2067   1.418       .  A
C1799      C2066   1.416       .  A
C1799      C1800   1.415       .  A
C1799      C1806   1.516       .  S
C1800      C2069   1.410       .  A
C1800      H1805   1.083       .  S
C1801      C2068   1.408       .  A
C1801      C1802   1.420   1_556  A
C1802      C1803   1.514       .  S
C1803      F1807   1.385       .  S
C1803      F1808   1.376       .  S
C1803      F1809   1.383       .  S
C1806      F1810   1.379       .  S
C1806      F1811   1.383       .  S
C1806      F1812   1.384       .  S
C1813      C2082   1.412       .  A
C1813      C1818   1.418       .  A
C1813      H1820   1.083       .  S
C1814      C2081   1.410   1_554  A
C1814      C1815   1.418       .  A
C1815      C1816   1.402       .  A
C1815      C1822   1.514       .  S
C1816      C1817   1.412       .  A
C1816      H1821   1.081       .  S
C1817      C2086   1.427   1_554  A
C1818      C2085   1.428       .  A
C1818      C1819   1.517       .  S
C1819      F1823   1.385       .  S
C1819      F1824   1.380       .  S
C1819      F1825   1.382       .  S
C1822      F1826   1.380       .  S
C1822      F1827   1.381       .  S
C1822      F1828   1.386       .  S
C1829      C2098   1.413       .  A
C1829      C2102   1.404       .  A
C1829      H1836   1.083       .  S
C1830      C2097   1.412       .  A
C1830      C1831   1.436   1_556  A
C1830      C1881   1.523       .  S
C1831      C1832   1.412   1_554  A
C1831      C1838   1.515       .  S
C1832      C1833   1.396       .  A
C1832      H1837   1.084   1_556  S
C1833      C1834   1.416       .  A
C1834      C2097   1.403       .  A
C1834      C1835   1.519       .  S
C1835      F1839   1.383       .  S
C1835      F1840   1.384       .  S
C1835      F2109   1.378       .  S
C1838      F1842   1.377       .  S
C1838      F2111   1.380       .  S
C1838      F2112   1.386       .  S
F1841      C2103   1.378       .  S
F1843      C2106   1.380       .  S
F1844      C2106   1.386       .  S
C1845      C2114   1.406       .  A
C1845      C1850   1.404       .  A
C1845      H1852   1.085       .  S
C1846      C2113   1.406   1_554  A
C1846      C1847   1.420       .  A
C1847      C1848   1.410       .  A
C1847      C1854   1.521       .  S
C1848      C1849   1.407       .  A
C1848      H1853   1.084       .  S
C1849      C2118   1.419   1_554  A
C1850      C2117   1.417       .  A
C1850      C1851   1.517       .  S
C1851      F1855   1.384       .  S
C1851      F2124   1.378       .  S
C1851      F1857   1.382       .  S
C1854      F1858   1.384       .  S
C1854      F2127   1.382       .  S
C1854      F1860   1.385       .  S
F1856      C2119   1.378       .  S
F1859      C2122   1.383       .  S
C1861      C1862   1.409       .  A
C1861      C1866   1.397       .  A
C1861      H1868   1.083       .  S
C1862      C2131   1.428   1_554  A
C1863      C2130   1.427       .  A
C1863      C1864   1.416       .  A
C1863      C1870   1.516       .  S
C1864      C2133   1.407       .  A
C1864      H1869   1.083       .  S
C1865      C2132   1.407   1_554  A
C1865      C1866   1.414       .  A
C1865      C1877   1.498       .  S
C1866      C1867   1.515       .  S
C1867      F1871   1.385       .  S
C1867      F2140   1.380       .  S
C1867      F1873   1.381       .  S
C1870      F1874   1.381       .  S
C1870      F1876   1.385       .  S
F1872      C2135   1.380       .  S
C1877      C1882   1.415   1_554  A
C1878      C1879   1.398       .  A
C1878      H1883   1.084       .  S
C1879      C1880   1.401       .  A
C1879      C2114   1.488       .  S
C1880      H1884   1.081       .  S
C1881      C1882   1.415       .  A
C1882      H1885   1.075       .  S
C1886      C1887   1.406       .  A
C1886      C1891   1.418       .  A
C1886      C2069   1.503       .  S
C1887      C1888   1.399       .  A
C1887      H1892   1.084       .  S
C1888      C1889   1.400       .  A
C1888      C2053   1.481       .  S
C1889      C1890   1.406       .  A
C1889      H1893   1.084       .  S
C1890      C1891   1.421       .  A
C1890      C2082   1.507       .  S
C1891      H1894   1.082       .  S
C1895      C1896   1.537       .  S
C1895      C1901   1.546       .  S
C1895      C1899   1.518       .  S
C1895      C2037   1.543       .  S
C1896      H1903   1.082       .  S
C1896      C1897   1.380       .  D
C1897      C2085   1.517       .  S
C1898      C1902   1.543       .  S
C1898      H1904   1.098       .  S
C1899      H1905   1.087       .  S
C1899      C1900   1.358       .  D
C1900      C2117   1.481       .  S
C1901      H1906   1.082       .  S
C1902      C2018   1.495       .  S
C1907      C1913   1.527       .  S
C1907      C1911   1.528   1_455  S
C1907      C2002   1.545       .  S
C1908      H1915   1.083       .  S
C1908      C1909   1.371       .  D
C1909      C2050   1.496       .  S
C1910      C1914   1.544       .  S
C1911      H1917   1.080       .  S
C1911      C1912   1.373       .  D
C1912      C2130   1.510       .  S
C1913      H1918   1.086       .  S
C1914      C1989   1.487       .  S
C1919      C1920   1.545   1_545  S
C1919      C1925   1.535       .  S
C1919      C1954   1.548       .  S
C1920      H1927   1.084       .  S
C1920      C1921   1.363       .  D
C1921      C2066   1.491       .  S
C1922      C1926   1.552   1_545  S
C1922      H1928   1.101   1_545  S
C1923      H1929   1.087       .  S
C1923      C1924   1.362       .  D
C1924      C2101   1.485       .  S
C1925      H1930   1.084       .  S
C1926      C1973   1.506       .  S
O1931     Cr1949   1.954       .  S
O1931      C1939   1.253       .  A
C1933      C1957   1.493       .  S
C1933      O1934   1.258       .  A
O1934     Cr1950   1.968       .  S
O1935     Cr1950   2.012       .  S
O1935      C1936   1.264       .  A
C1936      C2005   1.493       .  S
O1938     Cr1951   2.020   1_565  S
O1938      C1939   1.268       .  A
C1939      C2034   1.472       .  S
O1940     Cr1949   2.024       .  S
O1940      C1948   1.268       .  A
C1942      O1943   1.269       .  A
O1943     Cr1950   2.017       .  S
O1944     Cr1950   1.963       .  S
O1944      C1945   1.261       .  A
C1945      C1986   1.499       .  S
O1947     Cr1951   1.968   1_565  S
O1947      C1948   1.261       .  A
C1948      C2021   1.501       .  S
C1953      C1958   1.410       .  A
C1953      H1960   1.076       .  S
C1954      C1955   1.429       .  A
C1955      C1956   1.404       .  A
C1955      C1962   1.521       .  S
C1956      H1961   1.084       .  S
C1957      C1958   1.416       .  A
C1958      C1959   1.521       .  S
C1959      F1965   1.384       .  S
C1962      F1966   1.382       .  S
C1969      C1974   1.409       .  A
C1969      H1976   1.083       .  S
C1970      C1971   1.419       .  A
C1971      C1972   1.402       .  A
C1971      C1978   1.524       .  S
C1972      C1973   1.409       .  A
C1972      H1977   1.082       .  S
C1974      C1975   1.516       .  S
C1975      F1981   1.371       .  S
C1978      F1982   1.382       .  S
C1985      C1986   1.406       .  A
C1985      C1990   1.399       .  A
C1985      H1992   1.084       .  S
C1987      C1988   1.414       .  A
C1987      C1994   1.520       .  S
C1988      C1989   1.404   1_655  A
C1988      H1993   1.083       .  S
C1990      C1991   1.523       .  S
C1991      F1995   1.384       .  S
C1991      F1997   1.380       .  S
C1994      F1998   1.383       .  S
C1994      F1999   1.384       .  S
C1994      F2000   1.385       .  S
C2001      C2006   1.407       .  A
C2001      H2008   1.073       .  S
C2002      C2003   1.437   1_455  A
C2003      C2004   1.404       .  A
C2003      C2010   1.532       .  S
C2004      H2009   1.082       .  S
C2005      C2006   1.418       .  A
C2006      C2007   1.523       .  S
C2007      F2011   1.385       .  S
C2007      F2012   1.383       .  S
C2007      F2013   1.383       .  S
C2010      F2014   1.378       .  S
C2010      F2015   1.381       .  S
C2010      F2016   1.386       .  S
C2017      C2018   1.402       .  A
C2017      C2022   1.415       .  A
C2017      H2024   1.081       .  S
C2018      C2019   1.420       .  A
C2019      C2020   1.401       .  A
C2019      C2026   1.521       .  S
C2020      C2021   1.408       .  A
C2020      H2025   1.084       .  S
C2021      C2022   1.427       .  A
C2022      C2023   1.519       .  S
C2023      F2027   1.384       .  S
C2023      F2028   1.383       .  S
C2023      F2029   1.384       .  S
C2026      F2032   1.384       .  S
C2033      C2034   1.397       .  A
C2033      C2038   1.407       .  A
C2033      H2040   1.085       .  S
C2034      C2035   1.412       .  A
C2035      C2036   1.401       .  A
C2035      C2042   1.523       .  S
C2036      C2037   1.414       .  A
C2036      H2041   1.077       .  S
C2037      C2038   1.434       .  A
C2038      C2039   1.524       .  S
C2039      F2043   1.385       .  S
C2039      F2044   1.378       .  S
C2039      F2045   1.383       .  S
C2042      F2046   1.382   1_655  S
C2042      F2047   1.384       .  S
C2042      F2048   1.385       .  S
C2049      C2050   1.409       .  A
C2049      C2054   1.404       .  A
C2049      H2056   1.083       .  S
C2051      C2052   1.413       .  A
C2051      C2058   1.517       .  S
C2052      H2057   1.083       .  S
C2053      C2054   1.413       .  A
C2054      C2055   1.520       .  S
C2055      F2059   1.385       .  S
C2055      F2060   1.381       .  S
C2055      F2061   1.383       .  S
C2058      F2062   1.380       .  S
C2058      F2063   1.377       .  S
C2058      F2064   1.385       .  S
C2065      C2066   1.398       .  A
C2065      C2070   1.403       .  A
C2065      H2072   1.084       .  S
C2067      C2068   1.414       .  A
C2067      C2074   1.517       .  S
C2068      H2073   1.083       .  S
C2069      C2070   1.422       .  A
C2070      C2071   1.511       .  S
C2071      F2075   1.385       .  S
C2071      F2076   1.373       .  S
C2071      F2077   1.383       .  S
C2074      F2078   1.378       .  S
C2074      F2079   1.383       .  S
C2074      F2080   1.385       .  S
C2081      C2086   1.418       .  A
C2081      H2088   1.083       .  S
C2082      C2083   1.416       .  A
C2083      C2084   1.397       .  A
C2083      C2090   1.511       .  S
C2084      C2085   1.408       .  A
C2084      H2089   1.081       .  S
C2086      C2087   1.516       .  S
C2087      F2091   1.385       .  S
C2087      F2092   1.381       .  S
C2087      F2093   1.382       .  S
C2090      F2094   1.377       .  S
C2090      F2095   1.382       .  S
C2090      F2096   1.385       .  S
C2097      H2104   1.083       .  S
C2098      C2099   1.435       .  A
C2099      C2100   1.411       .  A
C2099      C2106   1.516       .  S
C2100      C2101   1.397       .  A
C2100      H2105   1.083       .  S
C2101      C2102   1.415       .  A
C2102      C2103   1.519       .  S
C2103      F2107   1.383       .  S
C2103      F2108   1.384       .  S
C2106      F2110   1.377       .  S
C2113      C2118   1.407       .  A
C2113      H2120   1.085       .  S
C2114      C2115   1.420       .  A
C2115      C2116   1.407       .  A
C2115      C2122   1.520       .  S
C2116      C2117   1.405       .  A
C2116      H2121   1.085       .  S
C2118      C2119   1.517       .  S
C2119      F2123   1.385       .  S
C2119      F2125   1.382       .  S
C2122      F2126   1.382       .  S
C2122      F2128   1.385       .  S
C2129      C2130   1.408       .  A
C2129      C2134   1.396       .  A
C2129      H2136   1.082       .  S
C2131      C2132   1.417       .  A
C2131      C2138   1.516       .  S
C2132      H2137   1.083       .  S
C2133      C2134   1.413       .  A
C2134      C2135   1.515       .  S
C2135      F2139   1.385       .  S
C2135      F2141   1.381       .  S
C2138      F2142   1.381       .  S
C2138      F2144   1.385       .  S
