geometry optimzed in LAMMPS
_audit_creation_date              2020-11-30 
_audit_creation_method            'lammps2cif' 
_symmetry_space_group_name_H-M    'P1' 
_symmetry_Int_Tables_number       1 
_symmetry_cell_setting            triclinic 
loop_ 
_symmetry_equiv_pos_as_xyz 
  x,y,z 
_cell_length_a                    35.15497846 
_cell_length_b                    35.15722786498839 
_cell_length_c                    37.180360798235384 
_cell_angle_alpha                 89.99135622808248 
_cell_angle_beta                  90.00162061650934 
_cell_angle_gamma                 120.00596781149878 
loop_ 
_atom_site_label 
_atom_site_type_symbol 
_atom_site_fract_x 
_atom_site_fract_y 
_atom_site_fract_z 
_atom_site_charge 
C1          C  0.04607958  0.30706283  0.09616512     0.03700
C2          C  0.05042427  0.00889116  0.11686754    -0.12400
C3          C  0.06093738  0.01290698  0.15376586     0.01200
C4          C  0.06868647  0.31359958  0.16898103    -0.10900
C5          C  0.06127373  0.27663130  0.14907639     0.03700
C6          C  0.05019001  0.27372207  0.11261194    -0.10300
H7          H  0.04257036  0.03153431  0.10396551     0.09300
H8          H  0.07879989  0.31489500  0.19650286     0.06900
H9          H  0.04266578  0.24440347  0.09747478     0.06700
C10         C  0.07155060  0.08332731  0.23561450     0.05500
C11         C  0.07254208  0.11998424  0.21985415    -0.12400
C12         C  0.06634187  0.12130338  0.18262908     0.01200
C13         C  0.06290571  0.08704329  0.16070786    -0.10900
C14         C  0.06185214  0.04943008  0.17612292     0.03700
C15         C  0.06256128  0.04722889  0.21393390    -0.10300
H16         H  0.07935680  0.14810956  0.23636952     0.09300
H17         H  0.06197775  0.09095913  0.13200973     0.06900
H18         H  0.05950284  0.01859653  0.22714687     0.06700
C19         C  0.28988050  0.07419862  0.09647711     0.03700
C20         C  0.32309067  0.11174666  0.11286618    -0.12400
C21         C  0.32020084  0.11989274  0.14931881     0.01200
C22         C  0.28331332  0.09035967  0.16929104    -0.10900
C23         C  0.25019431  0.05026433  0.15390579     0.03700
C24         C  0.25403632  0.04360514  0.11697754    -0.10300
H25         H  0.35235039  0.13364260  0.09769481     0.09300
H26         H  0.28200134  0.09924918  0.19678766     0.06900
H27         H  0.23119745  0.01317955  0.10408127     0.06700
C28         C  0.17920915  0.32373246  0.23583281     0.03700
C29         C  0.14284715  0.28787869  0.21996440    -0.12400
C30         C  0.14198106  0.28028371  0.18277861     0.01200
C31         C  0.17647227  0.31110583  0.16100211    -0.10900
C32         C  0.21360061  0.01482915  0.17639646     0.03700
C33         C  0.21555772  0.01799303  0.21421839    -0.10300
H34         H  0.11462897  0.26644791  0.23635680     0.09300
H35         H  0.17288455  0.30592001  0.13234025     0.06900
H36         H  0.24378611  0.04404862  0.22744902     0.06700
C37         C  0.27286588  0.19078619  0.23535370     0.03700
C38         C  0.30867691  0.19011886  0.21958064    -0.12400
C39         C  0.31644135  0.19690673  0.18241370     0.01200
C40         C  0.28569157  0.20050518  0.16051225    -0.10900
C41         C  0.24881769  0.20097664  0.17589825     0.03700
C42         C  0.24562277  0.19964177  0.21370725    -0.10300
H43         H  0.32999689  0.18325258  0.23604217     0.09300
H44         H  0.29085578  0.20198416  0.13184239     0.06900
H45         H  0.21984532  0.20227270  0.22696731     0.06700
C46         C  0.18895478  0.21759801  0.09621326     0.03700
C47         C  0.21969300  0.21244201  0.11658185    -0.12400
C48         C  0.21325313  0.20204993  0.15352387     0.01200
C49         C  0.17314344  0.19490901  0.16904143    -0.10900
C50         C  0.14344083  0.20213609  0.14920542     0.03700
C51         C  0.15139761  0.21311798  0.11272214    -0.10300
H52         H  0.25006214  0.22001633  0.10358203     0.09300
H53         H  0.16435273  0.18465448  0.19654578     0.06900
H54         H  0.12938810  0.22039779  0.09763675     0.06700
C55         C  0.06259204  0.23894674  0.16567155     0.02900
C56         C  0.10329451  0.24034096  0.16778764     0.02900
C57         C  0.10453066  0.20081994  0.16590174     0.02900
C58         C  0.06522879  0.16012480  0.16780968     0.02900
C59         C  0.02451485  0.15890755  0.16580980     0.02900
C60         C  0.02309953  0.19819043  0.16759061     0.02900
O61         O  0.20559154  0.05928784  0.39856846    -0.77900
C62         C  0.18423479  0.17020626  0.39507211     0.83200
O63         O  0.09273314  0.33185885  0.36577512    -0.79000
O64         O  0.12310427  0.12333764  0.28126473    -0.80500
O65         O  0.26156085  0.13953113  0.28126197    -0.80300
O66         O  0.26551830  0.09703315  0.36574698    -0.78900
Zn67       Zn  0.17499909  0.08887411  0.37978032     1.55700
O68         O  0.22907273  0.18024805  0.28701468    -0.80300
Cd69       Cd  0.22966889  0.08931980  0.31819862     1.59700
Cd70       Cd  0.12110793  0.03347375  0.31812970     1.59600
O71         O  0.21271309  0.03361588  0.28781684    -0.80300
O72         O  0.17486468  0.08838981  0.33046480    -1.90800
Cd73       Cd  0.17363793  0.14204747  0.31793182     1.59900
O74         O  0.13957945  0.00131278  0.28167780    -0.80200
O75         O  0.16602171  0.17056324  0.36543244    -0.78900
C76         C  0.09375149  0.01689723  0.39534240     0.83600
C77         C  0.24694412  0.07933058  0.39551061     0.83300
O78         O  0.20481017  0.14941071  0.39790795    -0.77900
C79         C  0.25560037  0.17083802  0.27102726     0.84100
O80         O  0.11457830  0.05829798  0.39800443    -0.77900
C81         C  0.17688147  0.00719243  0.27167141     0.84200
C82         C  0.09175389  0.08603380  0.27116189     0.84600
O83         O  0.08256376  0.05015671  0.28713581    -0.80400
C84         C  0.16130011  0.29570393  0.56755293     0.03700
C85         C  0.19843834  0.29898682  0.55139201    -0.12400
C86         C  0.20677450  0.97560780  0.51484360     0.01200
C87         C  0.17630140  0.98062248  0.49393067    -0.10900
C88         C  0.13759509  0.97700932  0.50956519     0.03700
C89         C  0.13141667  0.30182031  0.54692536    -0.10300
H90         H  0.22030178  0.29199069  0.56700093     0.09300
H91         H  0.18335244  0.98607298  0.46564348     0.06900
H92         H  0.10228830  0.29675482  0.56060360     0.06700
C93         C  0.07761095  0.32640835  0.42906307     0.03700
C94         C  0.10785567  0.32093118  0.44977127    -0.12400
C95         C  0.10219705  0.31275312  0.48720757     0.01200
C96         C  0.06336319  0.30884340  0.50282796    -0.10900
C97         C  0.03279030  0.31368676  0.48191424     0.03700
C98         C  0.04017937  0.32249156  0.44513682    -0.10300
H99         H  0.13714946  0.32638447  0.43614456     0.09300
H100        H  0.05622988  0.30320328  0.53109164     0.06900
H101        H  0.01799544  0.32896116  0.42945624     0.06700
C102        C  0.06255368  0.10304289  0.56765919     0.03700
C103        C  0.09829286  0.13308989  0.54687104    -0.12400
C104        C  0.10092812  0.12703718  0.50951546     0.01200
C105        C  0.06626849  0.08789393  0.49410142    -0.10900
C106        C  0.03067382  0.05761996  0.51501894     0.03700
C107        C  0.02901540  0.06549320  0.55169283    -0.10300
H108        H  0.12195121  0.16262808  0.56031848     0.09300
H109        H  0.06513539  0.08030489  0.46596402     0.06900
H110        H  0.00023564  0.04355071  0.56735240     0.06700
C111        C  0.17612322  0.18656029  0.42871631     0.03700
C112        C  0.14014462  0.15675747  0.44944912    -0.12400
C113        C  0.13826577  0.16203172  0.48704395     0.01200
C114        C  0.17361755  0.20047279  0.50269114    -0.10900
C115        C  0.20894652  0.23099498  0.48172227     0.03700
C116        C  0.21016690  0.22359418  0.44489745    -0.10300
H117        H  0.11561829  0.12796703  0.43568659     0.09300
H118        H  0.17555381  0.20729042  0.53104024     0.06900
H119        H  0.23893974  0.24551472  0.42922325     0.06700
C120        C  0.30184308  0.20152643  0.56760591     0.03700
C121        C  0.29794418  0.23509706  0.55156899    -0.12400
C122        C  0.28900823  0.23370908  0.51479833     0.01200
C123        C  0.28449441  0.19848079  0.49380029    -0.10900
C124        C  0.28856978  0.16361307  0.50935785     0.03700
C125        C  0.29643023  0.16589755  0.54683162    -0.10300
H126        H  0.30438938  0.26370443  0.56729471     0.09300
H127        H  0.27896696  0.20007394  0.46552679     0.06900
H128        H  0.30169744  0.14194596  0.56046692     0.06700
C129        C  0.27161242  0.08758803  0.42899672     0.03700
C130        C  0.27792385  0.12366556  0.44960114    -0.12400
C131        C  0.28625421  0.12620537  0.48700080     0.01200
C132        C  0.29011398  0.09123847  0.50259951    -0.10900
C133        C  0.28441357  0.05540577  0.48181248     0.03700
C134        C  0.27499971  0.05376682  0.44512436    -0.10300
H135        H  0.27274402  0.14768339  0.43596467     0.09300
H136        H  0.96284029  0.08994898  0.53079871     0.06900
H137        H  0.26778586  0.02481814  0.42956002     0.06700
C138        C  0.28753179  0.27168479  0.49917531     0.02900
C139        C  0.24690104  0.27033264  0.49741622     0.02900
C140        C  0.24550227  0.30961707  0.49902486     0.02900
C141        C  0.28545818  0.01725840  0.49755779     0.02900
C142        C  0.32595075  0.01833795  0.49933547     0.02900
C143        C  0.32677874  0.31232187  0.49755830     0.02900
C144        C  0.16750849  0.20451517  0.76065790     0.03700
C145        C  0.16565082  0.16746069  0.77666166    -0.12400
C146        C  0.17161323  0.16621863  0.81396288     0.01200
C147        C  0.17570145  0.20084015  0.83551830    -0.10900
C148        C  0.17751643  0.23877487  0.81996659     0.03700
C149        C  0.17702519  0.24089794  0.78219680    -0.10300
H150        H  0.15850600  0.13913057  0.76030259     0.09300
H151        H  0.17657280  0.19662626  0.86413355     0.06900
H152        H  0.18033512  0.26959963  0.76894206     0.06700
C153        C  0.18979118  0.31151692  0.90103135     0.03700
C154        C  0.18726265  0.34616698  0.88488884    -0.12400
C155        C  0.17864898  0.34525858  0.84786226     0.01200
C156        C  0.17328418  0.30961531  0.82701818    -0.10900
C157        C  0.17854757  0.27535425  0.84232736     0.03700
C158        C  0.18582546  0.27694752  0.87960914    -0.10300
H159        H  0.19378225  0.04090625  0.90112063     0.09300
H160        H  0.16545272  0.30991945  0.79904896     0.06900
H161        H  0.19207508  0.25315609  0.89241672     0.06700
C162        C  0.05962288  0.29929387  0.76062132     0.03700
C163        C  0.02299197  0.27260935  0.78202596    -0.12400
C164        C  0.02486138  0.27537082  0.81979164     0.01200
C165        C  0.06278532  0.31138200  0.83541789    -0.10900
C166        C  0.09790720  0.00788900  0.81405095     0.03700
C167        C  0.09698014  0.00068337  0.77678711    -0.10300
H168        H  0.32764341  0.24721335  0.76873769     0.09300
H169        H  0.06698099  0.98261884  0.86406706     0.06900
H170        H  0.12545613  0.02185947  0.76055568     0.06700
C171        C  0.28553909  0.21521549  0.90089278     0.03700
C172        C  0.25104825  0.17776608  0.88492419    -0.12400
C173        C  0.25193478  0.16988139  0.84792878     0.01200
C174        C  0.28747249  0.20021364  0.82697623    -0.10900
C175        C  0.98818096  0.23998053  0.84214273     0.03700
C176        C  0.98642427  0.24600217  0.87933450    -0.10300
H177        H  0.22313072  0.15514903  0.90107111     0.09300
H178        H  0.28729272  0.19196182  0.79905037     0.06900
H179        H  0.00985232  0.27633833  0.89198277     0.06700
C180        C  0.04952030  0.07317546  0.90125542     0.03700
C181        C  0.08662939  0.07568590  0.88501571    -0.12400
C182        C  0.09443454  0.08474295  0.84805666     0.01200
C183        C  0.06428447  0.09046259  0.82736872    -0.10900
C184        C  0.02472449  0.08503075  0.84272040     0.03700
C185        C  0.01895337  0.07738062  0.87996663    -0.10300
H186        H  0.10908359  0.06990319  0.90093770     0.09300
H187        H  0.07256340  0.09870586  0.79947316     0.06900
H188        H  0.32228156  0.07114419  0.89284423     0.06700
C189        C  0.29884437  0.09736091  0.76120671     0.03700
C190        C  0.26365687  0.09913418  0.77725878    -0.12400
C191        C  0.25616579  0.09254446  0.81448144     0.01200
C192        C  0.28644418  0.08797507  0.83599503    -0.10900
C193        C  0.32266011  0.08639950  0.82040552     0.03700
C194        C  0.32553647  0.08748435  0.78263157    -0.10300
H195        H  0.24261388  0.10657356  0.76098752     0.09300
H196        H  0.28111135  0.08656414  0.86459943     0.06900
H197        H  0.01759411  0.08425457  0.76930078     0.06700
C198        C  0.17313347  0.12790130  0.82951166     0.02900
C199        C  0.21423481  0.12995760  0.83196896     0.02900
C200        C  0.21629474  0.09093792  0.82994539     0.02900
C201        C  0.17720147  0.04979955  0.83209142     0.02900
C202        C  0.13614541  0.04773069  0.82966909     0.02900
C203        C  0.13412782  0.08682065  0.83182161     0.02900
O204        O  0.98071170  0.27912805  0.06485412    -0.77900
C205        C  0.29859747  0.05895838  0.06256664     0.83200
O206        O  0.20243940  0.22265687  0.03265050    -0.79000
O207        O  0.24153952  0.01752519  0.94703341    -0.80500
O208        O  0.03831134  0.02233783  0.94711913    -0.80300
O209        O  0.04123180  0.31580643  0.03263842    -0.78900
Zn210      Zn  0.28589387  0.31134262  0.04677364     1.55700
O211        O  0.34650452  0.06909242  0.95580538    -0.80300
Cd212      Cd  0.00551317  0.30868251  0.98514677     1.59700
Cd213      Cd  0.23065295  0.25865192  0.98517780     1.59600
O214        O  0.31836060  0.25210131  0.95512108    -0.80300
O215        O  0.28608932  0.31153245  0.99754805    -1.90800
Cd216      Cd  0.28943125  0.03288182  0.98527347     1.59900
O217        O  0.24620981  0.22606266  0.94716628    -0.80200
O218        O  0.28146756  0.06094889  0.03283640    -0.78900
C219        C  0.20411523  0.24167944  0.06235477     0.83600
C220        C  0.02206026  0.29855645  0.06232953     0.83300
O221        O  0.31837147  0.03738785  0.06494801    -0.77900
C222        C  0.03526529  0.05563217  0.93784120     0.84100
O223        O  0.22545296  0.28304685  0.06480695    -0.77900
C224        C  0.28259665  0.22953111  0.93752238     0.84200
C225        C  0.20728608  0.31464748  0.93763832     0.84600
O226        O  0.19432946  0.27893505  0.95525858    -0.80400
O227        O  0.03385639  0.14003340  0.59872798    -0.77900
C228        C  0.32593476  0.20976487  0.60141990     0.83200
O229        O  0.14592779  0.29066986  0.63081137    -0.79000
O230        O  0.02627619  0.25449547  0.70945655    -0.80500
O231        O  0.01014377  0.10851578  0.70993651    -0.80300
O232        O  0.07250700  0.11845275  0.63091706    -0.78900
Zn233      Zn  0.06414008  0.20032870  0.61721586     1.55700
O234        O  0.31025072  0.14856494  0.71524750    -0.80300
Cd235      Cd  0.06532192  0.14661293  0.67867178     1.59700
Cd236      Cd  0.11795800  0.25529778  0.67861879     1.59600
O237        O  0.11622604  0.16485491  0.71477354    -0.80300
O238        O  0.06417618  0.20033868  0.66651746    -1.90800
Cd239      Cd  0.00919538  0.19903231  0.67867089     1.59900
O240        O  0.15632044  0.23815363  0.70949974    -0.80200
O241        O  0.30701042  0.19132286  0.63088686    -0.78900
C242        C  0.14531657  0.27166523  0.60136557     0.83600
C243        C  0.05432223  0.11911396  0.60136292     0.83300
O244        O  0.03401413  0.23062468  0.59897568    -0.77900
C245        C  0.31646285  0.11749037  0.72563841     0.84100
O246        O  0.12453261  0.23026787  0.59893717    -0.77900
C247        C  0.14740131  0.20211396  0.72510370     0.84200
C248        C  0.06224293  0.28157304  0.72515223     0.84600
O249        O  0.09956900  0.28771531  0.71491135    -0.80400
C250        C  0.04694487  0.64075462  0.09606762     0.03700
C251        C  0.05159754  0.34304131  0.11655916    -0.12400
C252        C  0.06193525  0.34684545  0.15348872     0.01200
C253        C  0.06922777  0.64730367  0.16899370    -0.10900
C254        C  0.06214488  0.61046673  0.14908228     0.03700
C255        C  0.05140898  0.60762872  0.11254112    -0.10300
H256        H  0.04426434  0.36601270  0.10356483     0.09300
H257        H  0.07930208  0.64865990  0.19654085     0.06900
H258        H  0.04424341  0.57841867  0.09739416     0.06700
C259        C  0.07267969  0.41763544  0.23530033     0.05500
C260        C  0.07319332  0.45400023  0.21950531    -0.12400
C261        C  0.06693116  0.45514011  0.18229578     0.01200
C262        C  0.06371429  0.42095381  0.16041165    -0.10900
C263        C  0.06318967  0.38358330  0.17583958     0.03700
C264        C  0.06443346  0.38172115  0.21365181    -0.10300
H265        H  0.07963653  0.48203734  0.23599403     0.09300
H266        H  0.06248691  0.42477483  0.13173609     0.06900
H267        H  0.06212073  0.35346930  0.22694544     0.06700
C268        C  0.28968860  0.40843399  0.09652148     0.03700
C269        C  0.32288215  0.44598016  0.11293304    -0.12400
C270        C  0.32039710  0.45372490  0.14954626     0.01200
C271        C  0.28383093  0.42370964  0.16966957    -0.10900
C272        C  0.25050953  0.38372396  0.15413590     0.03700
C273        C  0.25407533  0.37755339  0.11706918    -0.10300
H274        H  0.35193792  0.46811379  0.09764802     0.09300
H275        H  0.28292891  0.43223762  0.19734167     0.06900
H276        H  0.23118454  0.34727734  0.10401637     0.06700
C277        C  0.18052918  0.65773720  0.23514192     0.03700
C278        C  0.14404365  0.62176598  0.21950050    -0.12400
C279        C  0.14283103  0.61396651  0.18231504     0.01200
C280        C  0.17699436  0.64474243  0.16029742    -0.10900
C281        C  0.21376555  0.34803472  0.17646944     0.03700
C282        C  0.21535084  0.35120977  0.21427850    -0.10300
H283        H  0.11595735  0.60044385  0.23605693     0.09300
H284        H  0.17314061  0.63959774  0.13162873     0.06900
H285        H  0.24352621  0.37717121  0.22761504     0.06700
C286        C  0.27354271  0.52497951  0.23581833     0.03700
C287        C  0.30932102  0.52414605  0.22008217    -0.12400
C288        C  0.31726650  0.53109767  0.18292798     0.01200
C289        C  0.28676167  0.53508302  0.16102569    -0.10900
C290        C  0.24989569  0.53562866  0.17633837     0.03700
C291        C  0.24654076  0.53415655  0.21414093    -0.10300
H292        H  0.33043662  0.51699779  0.23654631     0.09300
H293        H  0.29204968  0.53666799  0.13237210     0.06900
H294        H  0.22073473  0.53680124  0.22733859     0.06700
C295        C  0.18984169  0.55122391  0.09622306     0.03700
C296        C  0.22080636  0.54672551  0.11685434    -0.12400
C297        C  0.21433301  0.53656113  0.15383672     0.01200
C298        C  0.17407748  0.52924856  0.16918844    -0.10900
C299        C  0.14409412  0.53576380  0.14904846     0.03700
C300        C  0.15202242  0.54635336  0.11250447    -0.10300
H301        H  0.25130919  0.55455192  0.10398170     0.09300
H302        H  0.16534883  0.51936211  0.19676696     0.06900
H303        H  0.12983316  0.55318329  0.09721128     0.06700
C304        C  0.06336440  0.57279119  0.16577113     0.02900
C305        C  0.10398467  0.57403829  0.16755292     0.02900
C306        C  0.10507583  0.53447679  0.16552000     0.02900
C307        C  0.06569465  0.49384153  0.16747041     0.02900
C308        C  0.02496754  0.49270509  0.16598384     0.02900
C309        C  0.02378263  0.53212209  0.16801181     0.02900
O310        O  0.20504660  0.39291981  0.39869530    -0.77900
C311        C  0.18407094  0.50385132  0.39532580     0.83200
O312        O  0.09304496  0.66418534  0.36505335    -0.79000
O313        O  0.12370618  0.45771073  0.28121382    -0.80500
O314        O  0.26152285  0.47319856  0.28146933    -0.80300
O315        O  0.26506537  0.43019904  0.36585807    -0.78900
Zn316      Zn  0.17462561  0.42259046  0.37987628     1.55700
O317        O  0.22959110  0.51439930  0.28744495    -0.80300
Cd318      Cd  0.22935819  0.42285954  0.31826740     1.59700
Cd319      Cd  0.12088487  0.36743083  0.31814523     1.59600
O320        O  0.21215476  0.36725530  0.28765063    -0.80300
O321        O  0.17472700  0.42223873  0.33056344    -1.90800
Cd322      Cd  0.17388039  0.47614650  0.31814184     1.59900
O323        O  0.13905276  0.33513340  0.28149107    -0.80200
O324        O  0.16593420  0.50436565  0.36569335    -0.78900
C325        C  0.09342918  0.35067896  0.39534896     0.83600
C326        C  0.24639246  0.41270175  0.39564951     0.83300
O327        O  0.20462629  0.48304012  0.39807923    -0.77900
C328        C  0.25596120  0.50480773  0.27139509     0.84100
O329        O  0.11412253  0.39208107  0.39798448    -0.77900
C330        C  0.17631221  0.34088500  0.27149050     0.84200
C331        C  0.09232590  0.42043774  0.27108626     0.84600
O332        O  0.08266948  0.38456744  0.28728048    -0.80400
C333        C  0.15997895  0.62736558  0.56700646     0.03700
C334        C  0.19796754  0.63222329  0.55127295    -0.12400
C335        C  0.20611402  0.30823808  0.51467952     0.01200
C336        C  0.17589879  0.31379940  0.49386538    -0.10900
C337        C  0.13715461  0.31009776  0.50950471     0.03700
C338        C  0.12949608  0.63207679  0.54601506    -0.10300
H339        H  0.22015598  0.62589687  0.56708560     0.09300
H340        H  0.18316251  0.31973816  0.46564013     0.06900
H341        H  0.09938716  0.62493892  0.55915549     0.06700
C342        C  0.07662255  0.65783387  0.42826733     0.03700
C343        C  0.10613529  0.65105794  0.44885531    -0.12400
C344        C  0.10106635  0.64419419  0.48646849     0.01200
C345        C  0.06301449  0.64183857  0.50229464    -0.10900
C346        C  0.03254152  0.64686465  0.48144566     0.03700
C347        C  0.03983658  0.65533765  0.44457812    -0.10300
H348        H  0.13462448  0.65465358  0.43499343     0.09300
H349        H  0.05656034  0.63751423  0.53072248     0.06900
H350        H  0.01808502  0.66249299  0.42897610     0.06700
C351        C  0.06163175  0.43617016  0.56744195     0.03700
C352        C  0.09732484  0.46646037  0.54675625    -0.12400
C353        C  0.10017080  0.46053275  0.50942824     0.01200
C354        C  0.06560209  0.42138453  0.49389006    -0.10900
C355        C  0.02998737  0.39096939  0.51473105     0.03700
C356        C  0.02825261  0.39862210  0.55141149    -0.10300
H357        H  0.12087709  0.49598236  0.56027092     0.09300
H358        H  0.06458106  0.41386413  0.46574704     0.06900
H359        H  0.99953896  0.37646867  0.56705154     0.06700
C360        C  0.17594909  0.52008469  0.42900508     0.03700
C361        C  0.13983087  0.49032585  0.44960108    -0.12400
C362        C  0.13772880  0.49558189  0.48715683     0.01200
C363        C  0.17308446  0.53398927  0.50292779    -0.10900
C364        C  0.20866207  0.56443780  0.48206402     0.03700
C365        C  0.21002019  0.55698562  0.44527745    -0.10300
H366        H  0.11532549  0.46160437  0.43575530     0.09300
H367        H  0.17481776  0.54079544  0.53127141     0.06900
H368        H  0.23889654  0.57882318  0.42967251     0.06700
C369        C  0.30079646  0.53457742  0.56791879     0.03700
C370        C  0.29747668  0.56844005  0.55177849    -0.12400
C371        C  0.28866450  0.56709606  0.51499585     0.01200
C372        C  0.28354426  0.53153901  0.49412396    -0.10900
C373        C  0.28715133  0.49642629  0.50975860     0.03700
C374        C  0.29496003  0.49871214  0.54723230    -0.10300
H375        H  0.30423875  0.59718679  0.56744322     0.09300
H376        H  0.27796789  0.53310025  0.46586100     0.06900
H377        H  0.29994976  0.47458498  0.56089137     0.06700
C378        C  0.27094987  0.42088771  0.42918778     0.03700
C379        C  0.27680530  0.45667798  0.44995823    -0.12400
C380        C  0.28473621  0.45894443  0.48741012     0.01200
C381        C  0.28844290  0.42384401  0.50295573    -0.10900
C382        C  0.28343731  0.38839331  0.48194283     0.03700
C383        C  0.27451680  0.38711336  0.44518276    -0.10300
H384        H  0.27162284  0.48070562  0.43635183     0.09300
H385        H  0.96071107  0.42227702  0.53122140     0.06900
H386        H  0.26774913  0.35841460  0.42944600     0.06700
C387        C  0.28735073  0.60513580  0.49928787     0.02900
C388        C  0.24672641  0.60382545  0.49770067     0.02900
C389        C  0.24544206  0.64317164  0.49914562     0.02900
C390        C  0.28477792  0.35026828  0.49742821     0.02900
C391        C  0.32540483  0.35159576  0.49907466     0.02900
C392        C  0.32670044  0.64575635  0.49732294     0.02900
C393        C  0.16724242  0.53732196  0.76037468     0.03700
C394        C  0.16554428  0.50045935  0.77656426    -0.12400
C395        C  0.17210156  0.49973445  0.81380483     0.01200
C396        C  0.17679069  0.53470816  0.83514368    -0.10900
C397        C  0.17854857  0.57250361  0.81940457     0.03700
C398        C  0.17723742  0.57406090  0.78164789    -0.10300
H399        H  0.15801206  0.47186161  0.76042153     0.09300
H400        H  0.17798247  0.53077786  0.86376441     0.06900
H401        H  0.18029238  0.60260087  0.76828132     0.06700
C402        C  0.19131737  0.64540745  0.90035438     0.03700
C403        C  0.18810874  0.67974600  0.88438282    -0.12400
C404        C  0.17927822  0.67878131  0.84739183     0.01200
C405        C  0.17411229  0.64324332  0.82647018    -0.10900
C406        C  0.18001580  0.60931917  0.84166168     0.03700
C407        C  0.18807133  0.61127348  0.87881809    -0.10300
H408        H  0.19282649  0.37424813  0.90092135     0.09300
H409        H  0.16595186  0.64335155  0.79855773     0.06900
H410        H  0.19524406  0.58803498  0.89147403     0.06700
C411        C  0.05972416  0.63185725  0.76043083     0.03700
C412        C  0.02336674  0.60491566  0.78199481    -0.12400
C413        C  0.02543577  0.60772401  0.81976118     0.01200
C414        C  0.06331436  0.64388764  0.83524837    -0.10900
C415        C  0.09757474  0.34173929  0.81394800     0.03700
C416        C  0.09661304  0.33443910  0.77669809    -0.10300
H417        H  0.32805602  0.57941504  0.76877793     0.09300
H418        H  0.06692423  0.31645387  0.86403591     0.06900
H419        H  0.12512082  0.35548995  0.76044955     0.06700
C420        C  0.28584136  0.54789782  0.90089178     0.03700
C421        C  0.25118617  0.51067832  0.88482871    -0.12400
C422        C  0.25217855  0.50275770  0.84786489     0.01200
C423        C  0.28795594  0.53278695  0.82701915    -0.10900
C424        C  0.98882125  0.57240640  0.84221218     0.03700
C425        C  0.98707886  0.57842713  0.87942985    -0.10300
H426        H  0.22305200  0.48827854  0.90087686     0.09300
H427        H  0.28776899  0.52442267  0.79913310     0.06900
H428        H  0.01077663  0.60859313  0.89215085     0.06700
C429        C  0.04906952  0.40703077  0.90082425     0.03700
C430        C  0.08642446  0.40977196  0.88484228    -0.12400
C431        C  0.09447885  0.41878459  0.84788181     0.01200
C432        C  0.06443409  0.42451614  0.82699207    -0.10900
C433        C  0.02466120  0.41880152  0.84212819     0.03700
C434        C  0.01847148  0.41079085  0.87927657    -0.10300
H435        H  0.10883537  0.40412209  0.90094788     0.09300
H436        H  0.07281129  0.43282308  0.79910849     0.06900
H437        H  0.32143205  0.40388456  0.89185892     0.06700
C438        C  0.29801196  0.42943649  0.76043290     0.03700
C439        C  0.26262959  0.43094351  0.77640243    -0.12400
C440        C  0.25568106  0.42531925  0.81373400     0.01200
C441        C  0.28650505  0.42179351  0.83529722    -0.10900
C442        C  0.32255623  0.41989812  0.81973383     0.03700
C443        C  0.32513339  0.42026965  0.78197862    -0.10300
H444        H  0.24123605  0.43777977  0.76002034     0.09300
H445        H  0.28172468  0.42146102  0.86392552     0.06900
H446        H  0.01734979  0.41716815  0.76876789     0.06700
C447        C  0.17336695  0.46145139  0.82956505     0.02900
C448        C  0.21431580  0.46316284  0.83175862     0.02900
C449        C  0.21604097  0.42401487  0.82937561     0.02900
C450        C  0.17682458  0.38307326  0.83171503     0.02900
C451        C  0.13592215  0.38135327  0.82957251     0.02900
C452        C  0.13418445  0.42057486  0.83186415     0.02900
O453        O  0.98156522  0.61221157  0.06465234    -0.77900
C454        C  0.29843939  0.39329373  0.06257180     0.83200
O455        O  0.20255335  0.55604034  0.03250507    -0.79000
O456        O  0.24012045  0.35116115  0.94725144    -0.80500
O457        O  0.03828414  0.35694904  0.94721838    -0.80300
O458        O  0.04195144  0.64915115  0.03242307    -0.78900
Zn459      Zn  0.28687450  0.64452480  0.04650268     1.55700
O460        O  0.34519340  0.40281290  0.95490531    -0.80300
Cd461      Cd  0.00576924  0.64132082  0.98495703     1.59700
Cd462      Cd  0.23079146  0.59178397  0.98486043     1.59600
O463        O  0.31837753  0.58447729  0.95530013    -0.80300
O464        O  0.28647197  0.64431038  0.99730147    -1.90800
Cd465      Cd  0.28866485  0.36699374  0.98513401     1.59900
O466        O  0.24639973  0.55912168  0.94688354    -0.80200
O467        O  0.28142257  0.39545161  0.03281332    -0.78900
C468        C  0.20492231  0.57519312  0.06231248     0.83600
C469        C  0.02291288  0.63195389  0.06217310     0.83300
O470        O  0.31805541  0.37156129  0.06501535    -0.77900
C471        C  0.03462415  0.38972522  0.93744094     0.84100
O472        O  0.22669597  0.61654301  0.06478214    -0.77900
C473        C  0.28273769  0.56227014  0.93746743     0.84200
C474        C  0.20851755  0.64838215  0.93700856     0.84600
O475        O  0.19498096  0.61266618  0.95477862    -0.80400
O476        O  0.03216401  0.47202896  0.59911506    -0.77900
C477        C  0.32495103  0.54269501  0.60166156     0.83200
O478        O  0.14551290  0.62257952  0.63037051    -0.79000
O479        O  0.02606889  0.58724855  0.70929522    -0.80500
O480        O  0.00932952  0.44077242  0.70921636    -0.80300
O481        O  0.07210672  0.45141983  0.63060645    -0.78900
Zn482      Zn  0.06282467  0.53255236  0.61711135     1.55700
O483        O  0.30961250  0.48098420  0.71483179    -0.80300
Cd484      Cd  0.06480171  0.47915040  0.67845209     1.59700
Cd485      Cd  0.11743654  0.58757981  0.67824033     1.59600
O486        O  0.11560312  0.49722208  0.71473174    -0.80300
O487        O  0.06348935  0.53280191  0.66634437    -1.90800
Cd488      Cd  0.00863892  0.53171707  0.67857346     1.59900
O489        O  0.15568403  0.57046556  0.70915644    -0.80200
O490        O  0.30609727  0.52426074  0.63112784    -0.78900
C491        C  0.14424649  0.60340247  0.60085047     0.83600
C492        C  0.05331331  0.45174899  0.60131359     0.83300
O493        O  0.03300369  0.56328446  0.59911920    -0.77900
C494        C  0.31564250  0.44970313  0.72495579     0.84100
O495        O  0.12292359  0.56202040  0.59840115    -0.77900
C496        C  0.14681965  0.53455096  0.72491303     0.84200
C497        C  0.06214972  0.61426140  0.72486822     0.84600
O498        O  0.09939237  0.62031026  0.71448256    -0.80400
C499        C  0.04561404  0.97318268  0.09643976     0.03700
C500        C  0.05188499  0.67648999  0.11653964    -0.12400
C501        C  0.06213260  0.68031248  0.15350199     0.01200
C502        C  0.06839206  0.98014842  0.16925457    -0.10900
C503        C  0.06149166  0.94338133  0.14935860     0.03700
C504        C  0.05044735  0.94029536  0.11288171    -0.10300
H505        H  0.04421056  0.69924604  0.10359868     0.09300
H506        H  0.07865760  0.98169861  0.19677499     0.06900
H507        H  0.04336645  0.91108506  0.09776869     0.06700
C508        C  0.07198747  0.75049202  0.23548478     0.05500
C509        C  0.07250058  0.78691001  0.21973870    -0.12400
C510        C  0.06645526  0.78822438  0.18248864     0.01200
C511        C  0.06351189  0.75419235  0.16054843    -0.10900
C512        C  0.06292435  0.71678052  0.17592040     0.03700
C513        C  0.06377073  0.71465329  0.21373795    -0.10300
H514        H  0.07887360  0.81488707  0.23627757     0.09300
H515        H  0.06259045  0.75815764  0.13186097     0.06900
H516        H  0.06126384  0.68626641  0.22694665     0.06700
C517        C  0.29060195  0.74155436  0.09580165     0.03700
C518        C  0.32366418  0.77911606  0.11232807    -0.12400
C519        C  0.32049018  0.78709191  0.14878399     0.01200
C520        C  0.28356010  0.75741473  0.16856329    -0.10900
C521        C  0.25078449  0.71722409  0.15310082     0.03700
C522        C  0.25475124  0.71074898  0.11617961    -0.10300
H523        H  0.35299317  0.80113394  0.09728506     0.09300
H524        H  0.28196747  0.76627685  0.19601883     0.06900
H525        H  0.23198475  0.68034441  0.10321943     0.06700
C526        C  0.17974968  0.99021782  0.23595130     0.03700
C527        C  0.14340579  0.95425699  0.22019690    -0.12400
C528        C  0.14215198  0.94695664  0.18294882     0.01200
C529        C  0.17623827  0.97798106  0.16104050    -0.10900
C530        C  0.21437639  0.68164730  0.17557228     0.03700
C531        C  0.21650090  0.68490492  0.21337699    -0.10300
H532        H  0.11542943  0.93258861  0.23672029     0.09300
H533        H  0.17233034  0.97300753  0.13236243     0.06900
H534        H  0.24499392  0.71069009  0.22654858     0.06700
C535        C  0.27356087  0.85935807  0.23546892     0.03700
C536        C  0.30916886  0.85816468  0.21978657    -0.12400
C537        C  0.31663299  0.86405804  0.18253578     0.01200
C538        C  0.28580883  0.86740748  0.16052474    -0.10900
C539        C  0.24928465  0.86860838  0.17585882     0.03700
C540        C  0.24652809  0.86833458  0.21366915    -0.10300
H541        H  0.33046144  0.85140423  0.23638304     0.09300
H542        H  0.29063231  0.86817792  0.13183226     0.06900
H543        H  0.22107553  0.87167118  0.22680113     0.06700
C544        C  0.18896621  0.88427255  0.09608417     0.03700
C545        C  0.21981650  0.87932211  0.11647367    -0.12400
C546        C  0.21354890  0.86926448  0.15346032     0.01200
C547        C  0.17343451  0.86203525  0.16901255    -0.10900
C548        C  0.14359583  0.86903889  0.14915715     0.03700
C549        C  0.15146779  0.87990582  0.11264104    -0.10300
H550        H  0.25015373  0.88679788  0.10347270     0.09300
H551        H  0.16478304  0.85185862  0.19656042     0.06900
H552        H  0.12939028  0.88707943  0.09754459     0.06700
C553        C  0.06280357  0.90581411  0.16605228     0.02900
C554        C  0.10344579  0.90712884  0.16799734     0.02900
C555        C  0.10465751  0.86764696  0.16587528     0.02900
C556        C  0.06533354  0.82700125  0.16762689     0.02900
C557        C  0.02464190  0.82585471  0.16564767     0.02900
C558        C  0.02327143  0.86514152  0.16780965     0.02900
O559        O  0.20595989  0.72566909  0.39771292    -0.77900
C560        C  0.18434212  0.83685610  0.39526971     0.83200
O561        O  0.09303529  0.99803540  0.36578858    -0.79000
O562        O  0.12290329  0.79065511  0.28149409    -0.80500
O563        O  0.26235476  0.80823624  0.28142424    -0.80300
O564        O  0.26602812  0.76477304  0.36537171    -0.78900
Zn565      Zn  0.17481992  0.75508548  0.37954297     1.55700
O566        O  0.22867728  0.84786030  0.28662439    -0.80300
Cd567      Cd  0.23028851  0.75737064  0.31775757     1.59700
Cd568      Cd  0.12157209  0.70059853  0.31769580     1.59600
O569        O  0.21368262  0.70227406  0.28652566    -0.80300
O570        O  0.17512220  0.75570225  0.33020886    -1.90800
Cd571      Cd  0.17369711  0.80936068  0.31789262     1.59900
O572        O  0.14042290  0.66903593  0.28089470    -0.80200
O573        O  0.16672275  0.83788656  0.36550152    -0.78900
C574        C  0.09332633  0.68256137  0.39477183     0.83600
C575        C  0.24736266  0.74638329  0.39493471     0.83300
O576        O  0.20403427  0.81520852  0.39841693    -0.77900
C577        C  0.25592484  0.83917501  0.27101376     0.84100
O578        O  0.11432594  0.72391440  0.39786091    -0.77900
C579        C  0.17780249  0.67530618  0.27066943     0.84200
C580        C  0.09187058  0.75326754  0.27119398     0.84600
O581        O  0.08289082  0.71737697  0.28703635    -0.80400
C582        C  0.16207482  0.96340589  0.56776078     0.03700
C583        C  0.19927867  0.96675979  0.55163295    -0.12400
C584        C  0.20595007  0.64179309  0.51461030     0.01200
C585        C  0.17559799  0.64696233  0.49358987    -0.10900
C586        C  0.13600785  0.64163524  0.50883742     0.03700
C587        C  0.13212476  0.96933177  0.54706333    -0.10300
H588        H  0.22122606  0.95993909  0.56729711     0.09300
H589        H  0.18346844  0.65403305  0.46553868     0.06900
H590        H  0.10306009  0.96441566  0.56075825     0.06700
C591        C  0.07779510  0.99264065  0.42903483     0.03700
C592        C  0.10795920  0.98705665  0.44974263    -0.12400
C593        C  0.10242614  0.97920051  0.48721382     0.01200
C594        C  0.06358994  0.97531819  0.50282113    -0.10900
C595        C  0.03302319  0.98016619  0.48189668     0.03700
C596        C  0.04045820  0.98896760  0.44511678    -0.10300
H597        H  0.13717980  0.99233264  0.43609202     0.09300
H598        H  0.05645941  0.96972198  0.53108601     0.06900
H599        H  0.01837257  0.99557342  0.42943219     0.06700
C600        C  0.06233082  0.76986428  0.56730869     0.03700
C601        C  0.09792545  0.80006110  0.54650892    -0.12400
C602        C  0.10051330  0.79414587  0.50916183     0.01200
C603        C  0.06578584  0.75499906  0.49368093    -0.10900
C604        C  0.03020507  0.72457835  0.51460005     0.03700
C605        C  0.02870739  0.73236525  0.55132240    -0.10300
H606        H  0.12160428  0.82956142  0.55999265     0.09300
H607        H  0.06459666  0.74750654  0.46551670     0.06900
H608        H  0.00002252  0.71034778  0.56704292     0.06700
C609        C  0.17630804  0.85345501  0.42874202     0.03700
C610        C  0.14018947  0.82378136  0.44936325    -0.12400
C611        C  0.13802700  0.82921520  0.48685334     0.01200
C612        C  0.17333251  0.86775021  0.50253177    -0.10900
C613        C  0.20894734  0.89809296  0.48164910     0.03700
C614        C  0.21034226  0.89050458  0.44488698    -0.10300
H615        H  0.11577672  0.79490161  0.43561884     0.09300
H616        H  0.17503854  0.87473968  0.53083692     0.06900
H617        H  0.23924069  0.91224596  0.42926354     0.06700
C618        C  0.30222698  0.86839312  0.56727313     0.03700
C619        C  0.29814356  0.90186592  0.55129363    -0.12400
C620        C  0.28879888  0.90029311  0.51459756     0.01200
C621        C  0.28350509  0.86470155  0.49368362    -0.10900
C622        C  0.28801311  0.83005777  0.50913730     0.03700
C623        C  0.29681251  0.83278090  0.54647501    -0.10300
H624        H  0.30479785  0.93056428  0.56698297     0.09300
H625        H  0.27703996  0.86580849  0.46554098     0.06900
H626        H  0.30287684  0.80924551  0.55991598     0.06700
C627        C  0.27180213  0.75446538  0.42856965     0.03700
C628        C  0.27821734  0.79058686  0.44919138    -0.12400
C629        C  0.28548750  0.79258338  0.48676207     0.01200
C630        C  0.28843348  0.75718073  0.50249363    -0.10900
C631        C  0.28346127  0.72173445  0.48160492     0.03700
C632        C  0.27473017  0.72041377  0.44479684    -0.10300
H633        H  0.27404626  0.81514538  0.43537716     0.09300
H634        H  0.95998596  0.75529466  0.53084948     0.06900
H635        H  0.26775303  0.69157284  0.42917696     0.06700
C636        C  0.28761862  0.93840538  0.49898953     0.02900
C637        C  0.24709783  0.93730845  0.49735989     0.02900
C638        C  0.24602049  0.97674013  0.49913625     0.02900
C639        C  0.28478020  0.68376792  0.49736076     0.02900
C640        C  0.32545033  0.68510945  0.49898020     0.02900
C641        C  0.32705737  0.97893951  0.49755627     0.02900
C642        C  0.16700364  0.87091173  0.76046407     0.03700
C643        C  0.16516869  0.83389458  0.77641993    -0.12400
C644        C  0.17113003  0.83265373  0.81368434     0.01200
C645        C  0.17531484  0.86726081  0.83528182    -0.10900
C646        C  0.17739340  0.90530571  0.81975695     0.03700
C647        C  0.17658663  0.90734092  0.78199098    -0.10300
H648        H  0.15803771  0.80557555  0.76004678     0.09300
H649        H  0.17608500  0.86299107  0.86390370     0.06900
H650        H  0.17983267  0.93603338  0.76876464     0.06700
C651        C  0.19104782  0.97832906  0.90089474     0.03700
C652        C  0.18821776  0.01290542  0.88497428    -0.12400
C653        C  0.17922619  0.01199201  0.84802952     0.01200
C654        C  0.17349747  0.97625905  0.82710173    -0.10900
C655        C  0.17905557  0.94208852  0.84219587     0.03700
C656        C  0.18721910  0.94393870  0.87933661    -0.10300
H657        H  0.19329259  0.70762365  0.90051843     0.09300
H658        H  0.16517911  0.97640102  0.79924142     0.06900
H659        H  0.19405647  0.92040996  0.89191087     0.06700
C660        C  0.06001747  0.96558324  0.76063491     0.03700
C661        C  0.02346019  0.93865024  0.78198607    -0.12400
C662        C  0.02517306  0.94134183  0.81975904     0.01200
C663        C  0.06302704  0.97743670  0.83545453    -0.10900
C664        C  0.09781144  0.67443277  0.81363335     0.03700
C665        C  0.09666101  0.66717769  0.77636433    -0.10300
H666        H  0.32827562  0.91321990  0.76858020     0.09300
H667        H  0.06755760  0.64901574  0.86385961     0.06900
H668        H  0.12495508  0.68843469  0.75998524     0.06700
C669        C  0.28534826  0.88085814  0.90064496     0.03700
C670        C  0.25058680  0.84387204  0.88445034    -0.12400
C671        C  0.25148343  0.83631181  0.84741999     0.01200
C672        C  0.28715145  0.86659082  0.82658680    -0.10900
C673        C  0.98827764  0.90591651  0.84198921     0.03700
C674        C  0.98667476  0.91144512  0.87929372    -0.10300
H675        H  0.22249437  0.82132518  0.90047188     0.09300
H676        H  0.28674204  0.85852851  0.79859461     0.06900
H677        H  0.01059763  0.94130752  0.89223072     0.06700
C678        C  0.04903344  0.73960792  0.90052640     0.03700
C679        C  0.08599200  0.74182922  0.88427444    -0.12400
C680        C  0.09400148  0.75119051  0.84738717     0.01200
C681        C  0.06420401  0.75759136  0.82678621    -0.10900
C682        C  0.02461650  0.75213292  0.84211059     0.03700
C683        C  0.01861060  0.74408582  0.87928476    -0.10300
H684        H  0.10826883  0.73575332  0.90016780     0.09300
H685        H  0.07268158  0.76628636  0.79897339     0.06900
H686        H  0.32190172  0.73781590  0.89212056     0.06700
C687        C  0.29851029  0.76390339  0.76054904     0.03700
C688        C  0.26327898  0.76563349  0.77654045    -0.12400
C689        C  0.25596345  0.75938581  0.81379540     0.01200
C690        C  0.28649808  0.75533909  0.83538100    -0.10900
C691        C  0.32262984  0.75360410  0.81980831     0.03700
C692        C  0.32533928  0.75429987  0.78204333    -0.10300
H693        H  0.24209545  0.77280873  0.76019978     0.09300
H694        H  0.28139179  0.75435396  0.86400308     0.06900
H695        H  0.01737696  0.75097391  0.76876308     0.06700
C696        C  0.17272247  0.79439564  0.82909898     0.02900
C697        C  0.21384687  0.79653068  0.83135748     0.02900
C698        C  0.21602640  0.75761768  0.82921870     0.02900
C699        C  0.17704523  0.71645439  0.83140167     0.02900
C700        C  0.13595914  0.71431349  0.82910411     0.02900
C701        C  0.13377871  0.75331418  0.83126509     0.02900
O702        O  0.98034670  0.94475801  0.06490094    -0.77900
C703        C  0.29944531  0.72650293  0.06187489     0.83200
O704        O  0.20222544  0.88874324  0.03249074    -0.79000
O705        O  0.24166570  0.68466274  0.94654053    -0.80500
O706        O  0.03798166  0.68911133  0.94659641    -0.80300
O707        O  0.04097958  0.98116846  0.03275833    -0.78900
Zn708      Zn  0.28593930  0.97718770  0.04663236     1.55700
O709        O  0.34638255  0.73603073  0.95513618    -0.80300
Cd710      Cd  0.00552135  0.97396717  0.98505489     1.59700
Cd711      Cd  0.23066457  0.92454419  0.98496503     1.59600
O712        O  0.31801862  0.91725477  0.95507954    -0.80300
O713        O  0.28632389  0.97714938  0.99742884    -1.90800
Cd714      Cd  0.28955093  0.69996520  0.98477072     1.59900
O715        O  0.24600424  0.89182964  0.94685351    -0.80200
O716        O  0.28206128  0.72831871  0.03222817    -0.78900
C717        C  0.20396846  0.90802523  0.06207146     0.83600
C718        C  0.02170748  0.96427447  0.06250691     0.83300
O719        O  0.31937046  0.70505651  0.06421640    -0.77900
C720        C  0.03490480  0.72232360  0.93715938     0.84100
O721        O  0.22537841  0.94940361  0.06428003    -0.77900
C722        C  0.28232438  0.89503976  0.93730984     0.84200
C723        C  0.20836852  0.98125149  0.93748633     0.84600
O724        O  0.19481151  0.94551481  0.95520995    -0.80400
O725        O  0.03419378  0.80711598  0.59857539    -0.77900
C726        C  0.32628427  0.87666768  0.60110383     0.83200
O727        O  0.14625075  0.95778165  0.63096390    -0.79000
O728        O  0.02663976  0.92151525  0.70908658    -0.80500
O729        O  0.00963051  0.77479656  0.70924935    -0.80300
O730        O  0.07236087  0.78482961  0.63062464    -0.78900
Zn731      Zn  0.06456048  0.86738967  0.61700397     1.55700
O732        O  0.31027887  0.81534488  0.71477212    -0.80300
Cd733      Cd  0.06509831  0.81297493  0.67832602     1.59700
Cd734      Cd  0.11799371  0.92180707  0.67843029     1.59600
O735        O  0.11582622  0.83116377  0.71456991    -0.80300
O736        O  0.06424971  0.86694325  0.66624346    -1.90800
Cd737      Cd  0.00940123  0.86592009  0.67833695     1.59900
O738        O  0.15608733  0.90447142  0.70923674    -0.80200
O739        O  0.30730510  0.85821472  0.63054443    -0.78900
C740        C  0.14586291  0.93906037  0.60143049     0.83600
C741        C  0.05430214  0.78584566  0.60111018     0.83300
O742        O  0.03436680  0.89761459  0.59874101    -0.77900
C743        C  0.31614402  0.78399754  0.72500590     0.84100
O744        O  0.12504202  0.89767290  0.59874901    -0.77900
C745        C  0.14700056  0.86843882  0.72490043     0.84200
C746        C  0.06259416  0.94817759  0.72502316     0.84600
O747        O  0.09983449  0.95405734  0.71489403    -0.80400
C748        C  0.37941146  0.30706256  0.09616582     0.03700
C749        C  0.38375752  0.00889150  0.11686761    -0.12400
C750        C  0.39427089  0.01290745  0.15376581     0.01200
C751        C  0.40202087  0.31360050  0.16898125    -0.10900
C752        C  0.39460749  0.27663193  0.14907670     0.03700
C753        C  0.38352276  0.27372227  0.11261247    -0.10300
H754        H  0.37590304  0.03153445  0.10396576     0.09300
H755        H  0.41213532  0.31489650  0.19650282     0.06900
H756        H  0.37599824  0.24440346  0.09747531     0.06700
C757        C  0.40488360  0.08332716  0.23561449     0.05500
C758        C  0.40587586  0.11998457  0.21985420    -0.12400
C759        C  0.39967588  0.12130404  0.18262908     0.01200
C760        C  0.39623985  0.08704407  0.16070777    -0.10900
C761        C  0.39518550  0.04943048  0.17612282     0.03700
C762        C  0.39589374  0.04722874  0.21393375    -0.10300
H763        H  0.41269090  0.14810993  0.23636970     0.09300
H764        H  0.39531244  0.09096020  0.13200961     0.06900
H765        H  0.39283446  0.01859591  0.22714655     0.06700
C766        C  0.62321410  0.07419721  0.09647768     0.03700
C767        C  0.65642406  0.11174544  0.11286654    -0.12400
C768        C  0.65353410  0.11989199  0.14931899     0.01200
C769        C  0.61664660  0.09035919  0.16929143    -0.10900
C770        C  0.58352790  0.05026358  0.15390635     0.03700
C771        C  0.58737018  0.04360382  0.11697831    -0.10300
H772        H  0.68568380  0.13364132  0.09769504     0.09300
H773        H  0.61533433  0.09924890  0.19678783     0.06900
H774        H  0.56453154  0.01317786  0.10408230     0.06700
C775        C  0.51254362  0.32373299  0.23583274     0.03700
C776        C  0.47618118  0.28787960  0.21996440    -0.12400
C777        C  0.47531496  0.28028426  0.18277867     0.01200
C778        C  0.50980620  0.31110597  0.16100204    -0.10900
C779        C  0.54693418  0.01482867  0.17639703     0.03700
C780        C  0.54889157  0.01799213  0.21421894    -0.10300
H781        H  0.44796287  0.26644928  0.23635684     0.09300
H782        H  0.50621836  0.30592009  0.13234019     0.06900
H783        H  0.57712017  0.04404759  0.22744955     0.06700
C784        C  0.60619937  0.19078532  0.23535364     0.03700
C785        C  0.64201016  0.19011777  0.21958037    -0.12400
C786        C  0.64977468  0.19690616  0.18241349     0.01200
C787        C  0.61902541  0.20050578  0.16051225    -0.10900
C788        C  0.58215183  0.20097765  0.17589851     0.03700
C789        C  0.57895674  0.19964201  0.21370752    -0.10300
H790        H  0.66332990  0.18325091  0.23604169     0.09300
H791        H  0.62418975  0.20198526  0.13184249     0.06900
H792        H  0.55317957  0.20227310  0.22696775     0.06700
C793        C  0.52228882  0.21759888  0.09621343     0.03700
C794        C  0.55302718  0.21244337  0.11658222    -0.12400
C795        C  0.54658745  0.20205156  0.15352428     0.01200
C796        C  0.50647786  0.19491092  0.16904190    -0.10900
C797        C  0.47677481  0.20213704  0.14920556     0.03700
C798        C  0.48473133  0.21311837  0.11272214    -0.10300
H799        H  0.58339641  0.22001779  0.10358238     0.09300
H800        H  0.49768735  0.18465704  0.19654634     0.06900
H801        H  0.46272153  0.22039751  0.09763660     0.06700
C802        C  0.39592580  0.23894736  0.16567182     0.02900
C803        C  0.43662827  0.24034158  0.16778787     0.02900
C804        C  0.43786448  0.20082063  0.16590179     0.02900
C805        C  0.39856266  0.16012544  0.16780967     0.02900
C806        C  0.35784865  0.15890809  0.16580955     0.02900
C807        C  0.35643324  0.19819098  0.16759056     0.02900
O808        O  0.53892584  0.05928684  0.39856838    -0.77900
C809        C  0.51756814  0.17020453  0.39507201     0.83200
O810        O  0.42606774  0.33185884  0.36577564    -0.79000
O811        O  0.45643777  0.12333665  0.28126464    -0.80500
O812        O  0.59489411  0.13952973  0.28126166    -0.80300
O813        O  0.59885227  0.09703314  0.36574676    -0.78900
Zn814      Zn  0.50833235  0.08887211  0.37978033     1.55700
O815        O  0.56240613  0.18024671  0.28701465    -0.80300
Cd816      Cd  0.56300226  0.08931853  0.31819859     1.59700
Cd817      Cd  0.45444062  0.03347220  0.31812945     1.59600
O818        O  0.54604653  0.03361405  0.28781769    -0.80300
O819        O  0.50819775  0.08838805  0.33046477    -1.90800
Cd820      Cd  0.50697135  0.14204585  0.31793165     1.59900
O821        O  0.47291298  0.00131178  0.28167776    -0.80200
O822        O  0.49935494  0.17056135  0.36543236    -0.78900
C823        C  0.42708383  0.01689472  0.39534220     0.83600
C824        C  0.58027845  0.07933052  0.39551046     0.83300
O825        O  0.53814312  0.14940860  0.39790802    -0.77900
C826        C  0.58893369  0.17083673  0.27102708     0.84100
O827        O  0.44791162  0.05829542  0.39800486    -0.77900
C828        C  0.51021505  0.00719105  0.27167188     0.84200
C829        C  0.42508709  0.08603307  0.27116171     0.84600
O830        O  0.41589682  0.05015573  0.28713531    -0.80400
C831        C  0.49463438  0.29570591  0.56755394     0.03700
C832        C  0.53177190  0.29898745  0.55139267    -0.12400
C833        C  0.54010845  0.97560915  0.51484372     0.01200
C834        C  0.50963542  0.98062401  0.49393081    -0.10900
C835        C  0.47092806  0.97700872  0.50956509     0.03700
C836        C  0.46475123  0.30182295  0.54692646    -0.10300
H837        H  0.55363525  0.29199111  0.56700152     0.09300
H838        H  0.51668732  0.98607629  0.46564391     0.06900
H839        H  0.43562369  0.29675930  0.56060504     0.06700
C840        C  0.41094542  0.32640956  0.42906354     0.03700
C841        C  0.44119003  0.32093255  0.44977198    -0.12400
C842        C  0.43553084  0.31275384  0.48720817     0.01200
C843        C  0.39669658  0.30884344  0.50282823    -0.10900
C844        C  0.36612426  0.31368763  0.48191441     0.03700
C845        C  0.37351375  0.32249284  0.44513705    -0.10300
H846        H  0.47048418  0.32638649  0.43614550     0.09300
H847        H  0.38956253  0.30320204  0.53109169     0.06900
H848        H  0.35133004  0.32896248  0.42945637     0.06700
C849        C  0.39588784  0.10304253  0.56765950     0.03700
C850        C  0.43162708  0.13308907  0.54687120    -0.12400
C851        C  0.43426144  0.12703670  0.50951542     0.01200
C852        C  0.39960109  0.08789397  0.49410141    -0.10900
C853        C  0.36400697  0.05761983  0.51501925     0.03700
C854        C  0.36234914  0.06549297  0.55169328    -0.10300
H855        H  0.45528616  0.16262679  0.56031878     0.09300
H856        H  0.39846692  0.08030547  0.46596379     0.06900
H857        H  0.33356952  0.04355061  0.56735305     0.06700
C858        C  0.50945670  0.18655882  0.42871611     0.03700
C859        C  0.47347841  0.15675585  0.44944911    -0.12400
C860        C  0.47159894  0.16203108  0.48704371     0.01200
C861        C  0.50695014  0.20047288  0.50269054    -0.10900
C862        C  0.54227931  0.23099477  0.48172165     0.03700
C863        C  0.54349999  0.22359341  0.44489692    -0.10300
H864        H  0.44895299  0.12796451  0.43568699     0.09300
H865        H  0.50888584  0.20729144  0.53103939     0.06900
H866        H  0.57227275  0.24551391  0.42922270     0.06700
C867        C  0.63517718  0.20152707  0.56760542     0.03700
C868        C  0.63127769  0.23509735  0.55156846    -0.12400
C869        C  0.62234119  0.23370896  0.51479787     0.01200
C870        C  0.61782739  0.19848059  0.49379997    -0.10900
C871        C  0.62190394  0.16361354  0.50935745     0.03700
C872        C  0.62976499  0.16589850  0.54683110    -0.10300
H873        H  0.63772276  0.26370477  0.56729410     0.09300
H874        H  0.61229908  0.20007316  0.46552650     0.06900
H875        H  0.63503313  0.14194732  0.56046638     0.06700
C876        C  0.60494703  0.08758847  0.42899646     0.03700
C877        C  0.61125872  0.12366619  0.44960071    -0.12400
C878        C  0.61958878  0.12620603  0.48700043     0.01200
C879        C  0.62344841  0.09123912  0.50259924    -0.10900
C880        C  0.61774811  0.05540644  0.48181233     0.03700
C881        C  0.60833430  0.05376733  0.44512421    -0.10300
H882        H  0.60607933  0.14768430  0.43596398     0.09300
H883        H  0.29617458  0.08994958  0.53079927     0.06900
H884        H  0.60112035  0.02481857  0.42955999     0.06700
C885        C  0.62086467  0.27168459  0.49917472     0.02900
C886        C  0.58023390  0.27033243  0.49741570     0.02900
C887        C  0.57883519  0.30961685  0.49902512     0.02900
C888        C  0.61879215  0.01725892  0.49755781     0.02900
C889        C  0.65928445  0.01833797  0.49933561     0.02900
C890        C  0.66011164  0.31232173  0.49755780     0.02900
C891        C  0.50084280  0.20451585  0.76065816     0.03700
C892        C  0.49898392  0.16746076  0.77666192    -0.12400
C893        C  0.50494626  0.16621847  0.81396315     0.01200
C894        C  0.50903519  0.20084026  0.83551860    -0.10900
C895        C  0.51085165  0.23877560  0.81996682     0.03700
C896        C  0.51036121  0.24089916  0.78219702    -0.10300
H897        H  0.49183819  0.13913038  0.76030288     0.09300
H898        H  0.50990581  0.19662616  0.86413388     0.06900
H899        H  0.51367274  0.26960145  0.76894243     0.06700
C900        C  0.52312497  0.31151689  0.90103160     0.03700
C901        C  0.52059496  0.34616618  0.88488932    -0.12400
C902        C  0.51198213  0.34525814  0.84786265     0.01200
C903        C  0.50661846  0.30961540  0.82701843    -0.10900
C904        C  0.51188288  0.27535496  0.84232754     0.03700
C905        C  0.51916140  0.27694849  0.87960920    -0.10300
H906        H  0.52711646  0.04090651  0.90112025     0.09300
H907        H  0.49878689  0.30991933  0.79904923     0.06900
H908        H  0.52541284  0.25315814  0.89241645     0.06700
C909        C  0.39295564  0.29929402  0.76062224     0.03700
C910        C  0.35632427  0.27260996  0.78202658    -0.12400
C911        C  0.35819364  0.27537113  0.81979229     0.01200
C912        C  0.39611780  0.31138172  0.83541881    -0.10900
C913        C  0.43124075  0.00788821  0.81405111     0.03700
C914        C  0.43031423  0.00068178  0.77678747    -0.10300
H915        H  0.66097687  0.24721268  0.76873776     0.09300
H916        H  0.40031349  0.98262002  0.86406723     0.06900
H917        H  0.45879017  0.02185796  0.76055601     0.06700
C918        C  0.61887225  0.21521608  0.90089254     0.03700
C919        C  0.58438100  0.17776693  0.88492406    -0.12400
C920        C  0.58526777  0.16988158  0.84792883     0.01200
C921        C  0.62080602  0.20021309  0.82697628    -0.10900
C922        C  0.32151326  0.23998067  0.84214316     0.03700
C923        C  0.31975612  0.24600220  0.87933489    -0.10300
H924        H  0.55646317  0.15515049  0.90107098     0.09300
H925        H  0.62062649  0.19196083  0.79905060     0.06900
H926        H  0.34318352  0.27633862  0.89198315     0.06700
C927        C  0.38285196  0.07317314  0.90125435     0.03700
C928        C  0.41996163  0.07568462  0.88501493    -0.12400
C929        C  0.42776708  0.08474193  0.84805594     0.01200
C930        C  0.39761687  0.09046122  0.82736780    -0.10900
C931        C  0.35805645  0.08502848  0.84271926     0.03700
C932        C  0.35228462  0.07737730  0.87996533    -0.10300
H933        H  0.44241609  0.06990245  0.90093711     0.09300
H934        H  0.40589597  0.09870494  0.79947227     0.06900
H935        H  0.65561607  0.07114619  0.89284499     0.06700
C936        C  0.63217874  0.09736264  0.76120737     0.03700
C937        C  0.59699064  0.09913495  0.77725926    -0.12400
C938        C  0.58949963  0.09254541  0.81448193     0.01200
C939        C  0.61977873  0.08797737  0.83599574    -0.10900
C940        C  0.65599518  0.08640264  0.82040637     0.03700
C941        C  0.65887160  0.08748740  0.78263244    -0.10300
H942        H  0.57594703  0.10657334  0.76098784     0.09300
H943        H  0.61444598  0.08656661  0.86460016     0.06900
H944        H  0.35092575  0.08425193  0.76929976     0.06700
C945        C  0.50646634  0.12790100  0.82951183     0.02900
C946        C  0.54756779  0.12995756  0.83196930     0.02900
C947        C  0.54962812  0.09093813  0.82994562     0.02900
C948        C  0.51053504  0.04979952  0.83209123     0.02900
C949        C  0.46947880  0.04773035  0.82966886     0.02900
C950        C  0.46746079  0.08682015  0.83182128     0.02900
O951        O  0.31404300  0.27912809  0.06485567    -0.77900
C952        C  0.63193095  0.05895710  0.06256715     0.83200
O953        O  0.53577320  0.22265754  0.03265054    -0.79000
O954        O  0.57487333  0.01752527  0.94703370    -0.80500
O955        O  0.37164306  0.02233582  0.94711830    -0.80300
O956        O  0.37456268  0.31580479  0.03263907    -0.78900
Zn957      Zn  0.61922805  0.31134287  0.04677311     1.55700
O958        O  0.67983789  0.06909173  0.95580578    -0.80300
Cd959      Cd  0.33884449  0.30868119  0.98514728     1.59700
Cd960      Cd  0.56398668  0.25865249  0.98517780     1.59600
O961        O  0.65169439  0.25210260  0.95512032    -0.80300
O962        O  0.61942325  0.31153292  0.99754754    -1.90800
Cd963      Cd  0.62276480  0.03288142  0.98527395     1.59900
O964        O  0.57954326  0.22606310  0.94716634    -0.80200
O965        O  0.61480109  0.06094795  0.03283701    -0.78900
C966        C  0.53744928  0.24168022  0.06235482     0.83600
C967        C  0.35539149  0.29855581  0.06233053     0.83300
O968        O  0.65170501  0.03738660  0.06494827    -0.77900
C969        C  0.36859704  0.05563012  0.93784019     0.84100
O970        O  0.55878737  0.28304763  0.06480692    -0.77900
C971        C  0.61593017  0.22953199  0.93752204     0.84200
C972        C  0.54061930  0.31464758  0.93763869     0.84600
O973        O  0.52766276  0.27893519  0.95525891    -0.80400
O974        O  0.36719217  0.14003528  0.59872705    -0.77900
C975        C  0.65926853  0.20976558  0.60141960     0.83200
O976        O  0.47926124  0.29067156  0.63081239    -0.79000
O977        O  0.35960935  0.25449576  0.70945736    -0.80500
O978        O  0.34347741  0.10851616  0.70993623    -0.80300
O979        O  0.40584076  0.11845312  0.63091734    -0.78900
Zn980      Zn  0.39747446  0.20033000  0.61721613     1.55700
O981        O  0.64358442  0.14856580  0.71524767    -0.80300
Cd982      Cd  0.39865572  0.14661365  0.67867198     1.59700
Cd983      Cd  0.45129139  0.25529874  0.67861962     1.59600
O984        O  0.44955984  0.16485610  0.71477389    -0.80300
O985        O  0.39750981  0.20033936  0.66651777    -1.90800
Cd986      Cd  0.34252905  0.19903294  0.67867135     1.59900
O987        O  0.48965416  0.23815487  0.70950053    -0.80200
O988        O  0.64034397  0.19132314  0.63088639    -0.78900
C989        C  0.47865068  0.27166719  0.60136661     0.83600
C990        C  0.38765673  0.11911464  0.60136284     0.83300
O991        O  0.36734795  0.23062539  0.59897588    -0.77900
C992        C  0.64979650  0.11749127  0.72563871     0.84100
O993        O  0.45786733  0.23026985  0.59893821    -0.77900
C994        C  0.48073516  0.20211508  0.72510420     0.84200
C995        C  0.39557592  0.28157316  0.72515329     0.84600
O996        O  0.43290207  0.28771550  0.71491260    -0.80400
C997        C  0.38027857  0.64075557  0.09606835     0.03700
C998        C  0.38492961  0.34304106  0.11655988    -0.12400
C999        C  0.39526865  0.34684584  0.15348915     0.01200
C1000       C  0.40256117  0.64730414  0.16899444    -0.10900
C1001       C  0.39547856  0.61046739  0.14908286     0.03700
C1002       C  0.38474294  0.60762973  0.11254165    -0.10300
H1003       H  0.37759551  0.36601207  0.10356585     0.09300
H1004       H  0.41263532  0.64866025  0.19654174     0.06900
H1005       H  0.37757769  0.57841990  0.09739450     0.06700
C1006       C  0.40601344  0.41763551  0.23530089     0.05500
C1007       C  0.40652702  0.45400035  0.21950598    -0.12400
C1008       C  0.40026453  0.45514032  0.18229647     0.01200
C1009       C  0.39704763  0.42095412  0.16041218    -0.10900
C1010       C  0.39652321  0.38358365  0.17584005     0.03700
C1011       C  0.39776705  0.38172132  0.21365222    -0.10300
H1012       H  0.41297042  0.48203750  0.23599484     0.09300
H1013       H  0.39582015  0.42477518  0.13173669     0.06900
H1014       H  0.39545413  0.35346926  0.22694569     0.06700
C1015       C  0.62302284  0.40843325  0.09652133     0.03700
C1016       C  0.65621610  0.44597967  0.11293277    -0.12400
C1017       C  0.65373056  0.45372464  0.14954586     0.01200
C1018       C  0.61716428  0.42370959  0.16966911    -0.10900
C1019       C  0.58384339  0.38372366  0.15413555     0.03700
C1020       C  0.58740951  0.37755257  0.11706896    -0.10300
H1021       H  0.68527185  0.46811320  0.09764790     0.09300
H1022       H  0.61626179  0.43223781  0.19734091     0.06900
H1023       H  0.56451906  0.34727653  0.10401635     0.06700
C1024       C  0.51386313  0.65773832  0.23514187     0.03700
C1025       C  0.47737737  0.62176708  0.21950073    -0.12400
C1026       C  0.47616454  0.61396704  0.18231532     0.01200
C1027       C  0.51032786  0.64474252  0.16029744    -0.10900
C1028       C  0.54709963  0.34803469  0.17646924     0.03700
C1029       C  0.54868538  0.35120979  0.21427832    -0.10300
H1030       H  0.44929114  0.60044528  0.23605734     0.09300
H1031       H  0.50647409  0.63959743  0.13162879     0.06900
H1032       H  0.57686118  0.37717082  0.22761477     0.06700
C1033       C  0.60687633  0.52497864  0.23581878     0.03700
C1034       C  0.64265469  0.52414543  0.22008246    -0.12400
C1035       C  0.65059987  0.53109698  0.18292825     0.01200
C1036       C  0.62009473  0.53508205  0.16102614    -0.10900
C1037       C  0.58322881  0.53562767  0.17633900     0.03700
C1038       C  0.57987391  0.53415526  0.21414155    -0.10300
H1039       H  0.66377057  0.51699746  0.23654648     0.09300
H1040       H  0.62538250  0.53666690  0.13237251     0.06900
H1041       H  0.55406780  0.53679963  0.22733926     0.06700
C1042       C  0.52317571  0.55122507  0.09622417     0.03700
C1043       C  0.55414005  0.54672600  0.11685533    -0.12400
C1044       C  0.54766630  0.53656078  0.15383756     0.01200
C1045       C  0.50741075  0.52924823  0.16918925    -0.10900
C1046       C  0.47742768  0.53576412  0.14904938     0.03700
C1047       C  0.48535637  0.54635438  0.11250550    -0.10300
H1048       H  0.58464290  0.55455250  0.10398275     0.09300
H1049       H  0.49868187  0.51936130  0.19676771     0.06900
H1050       H  0.46316736  0.55318467  0.09721235     0.06700
C1051       C  0.39669789  0.57279159  0.16577148     0.02900
C1052       C  0.43731812  0.57403863  0.16755351     0.02900
C1053       C  0.43840931  0.53447711  0.16552082     0.02900
C1054       C  0.39902807  0.49384182  0.16747115     0.02900
C1055       C  0.35830095  0.49270540  0.16598410     0.02900
C1056       C  0.35711606  0.53212245  0.16801204     0.02900
O1057       O  0.53837963  0.39291863  0.39869510    -0.77900
C1058       C  0.51740636  0.50385098  0.39532645     0.83200
O1059       O  0.42637935  0.66418668  0.36505435    -0.79000
O1060       O  0.45704024  0.45771042  0.28121436    -0.80500
O1061       O  0.59485781  0.47319880  0.28147034    -0.80300
O1062       O  0.59839912  0.43019960  0.36585912    -0.78900
Zn1063     Zn  0.50795969  0.42259013  0.37987625     1.55700
O1064       O  0.56292508  0.51439870  0.28744546    -0.80300
Cd1065     Cd  0.56269256  0.42285956  0.31826796     1.59700
Cd1066     Cd  0.45421916  0.36743052  0.31814549     1.59600
O1067       O  0.54548964  0.36725573  0.28765068    -0.80300
O1068       O  0.50806112  0.42223835  0.33056350    -1.90800
Cd1069     Cd  0.50721450  0.47614612  0.31814238     1.59900
O1070       O  0.47238761  0.33513389  0.28149124    -0.80200
O1071       O  0.49926881  0.50436504  0.36569435    -0.78900
C1072       C  0.42676346  0.35067947  0.39534912     0.83600
C1073       C  0.57972558  0.41270157  0.39565018     0.83300
O1074       O  0.53796181  0.48303985  0.39807923    -0.77900
C1075       C  0.58929548  0.50480741  0.27139578     0.84100
O1076       O  0.44745633  0.39208164  0.39798398    -0.77900
C1077       C  0.50964703  0.34088559  0.27149050     0.84200
C1078       C  0.42565983  0.42043751  0.27108676     0.84600
O1079       O  0.41600345  0.38456711  0.28728083    -0.80400
C1080       C  0.49331350  0.62736776  0.56700761     0.03700
C1081       C  0.53130166  0.63222455  0.55127393    -0.12400
C1082       C  0.53944704  0.30823778  0.51468003     0.01200
C1083       C  0.50923170  0.31379879  0.49386591    -0.10900
C1084       C  0.47048831  0.31009864  0.50950551     0.03700
C1085       C  0.46283091  0.63207964  0.54601639    -0.10300
H1086       H  0.55348998  0.62589802  0.56708657     0.09300
H1087       H  0.51649478  0.31973609  0.46564055     0.06900
H1088       H  0.43272266  0.62494340  0.55915726     0.06700
C1089       C  0.40995689  0.65783507  0.42826823     0.03700
C1090       C  0.43946969  0.65105960  0.44885647    -0.12400
C1091       C  0.43439999  0.64419483  0.48646947     0.01200
C1092       C  0.39634731  0.64183794  0.50229524    -0.10900
C1093       C  0.36587443  0.64686399  0.48144594     0.03700
C1094       C  0.37317019  0.65533772  0.44457852    -0.10300
H1095       H  0.46795951  0.65465655  0.43499490     0.09300
H1096       H  0.38989238  0.63751254  0.53072290     0.06900
H1097       H  0.35141866  0.66249290  0.42897627     0.06700
C1098       C  0.39496595  0.43616945  0.56744236     0.03700
C1099       C  0.43066043  0.46645859  0.54675732    -0.12400
C1100       C  0.43350579  0.46053192  0.50942903     0.01200
C1101       C  0.39893601  0.42138480  0.49389040    -0.10900
C1102       C  0.36332072  0.39096999  0.51473098     0.03700
C1103       C  0.36158562  0.39862259  0.55141141    -0.10300
H1104       H  0.45421416  0.49597913  0.56027271     0.09300
H1105       H  0.39791446  0.41386503  0.46574712     0.06900
H1106       H  0.33287143  0.37647000  0.56705103     0.06700
C1107       C  0.50928462  0.52008380  0.42900610     0.03700
C1108       C  0.47316696  0.49032440  0.44960225    -0.12400
C1109       C  0.47106398  0.49558108  0.48715776     0.01200
C1110       C  0.50641855  0.53398948  0.50292850    -0.10900
C1111       C  0.54199634  0.56443789  0.48206485     0.03700
C1112       C  0.54335514  0.55698531  0.44527840    -0.10300
H1113       H  0.44866260  0.46160187  0.43575671     0.09300
H1114       H  0.50815078  0.54079678  0.53127185     0.06900
H1115       H  0.57223141  0.57882316  0.42967352     0.06700
C1116       C  0.63412927  0.53457716  0.56791965     0.03700
C1117       C  0.63081049  0.56844033  0.55177932    -0.12400
C1118       C  0.62199870  0.56709669  0.51499667     0.01200
C1119       C  0.61687896  0.53153995  0.49412460    -0.10900
C1120       C  0.62048467  0.49642650  0.50975939     0.03700
C1121       C  0.62829195  0.49871152  0.54723327    -0.10300
H1122       H  0.63757290  0.59718717  0.56744411     0.09300
H1123       H  0.61130398  0.53310194  0.46586150     0.06900
H1124       H  0.63328000  0.47458352  0.56089261     0.06700
C1125       C  0.60428211  0.42088739  0.42918883     0.03700
C1126       C  0.61013739  0.45667759  0.44995926    -0.12400
C1127       C  0.61806931  0.45894454  0.48741097     0.01200
C1128       C  0.62177671  0.42384445  0.50295643    -0.10900
C1129       C  0.61677013  0.38839326  0.48194367     0.03700
C1130       C  0.60784897  0.38711306  0.44518377    -0.10300
H1131       H  0.60495413  0.48070488  0.43635303     0.09300
H1132       H  0.29404079  0.42227529  0.53122115     0.06900
H1133       H  0.60108103  0.35841416  0.42944700     0.06700
C1134       C  0.62068471  0.60513640  0.49928888     0.02900
C1135       C  0.58006024  0.60382575  0.49770164     0.02900
C1136       C  0.57877556  0.64317178  0.49914643     0.02900
C1137       C  0.61811084  0.35026816  0.49742872     0.02900
C1138       C  0.65873777  0.35159566  0.49907444     0.02900
C1139       C  0.66003426  0.64575702  0.49732378     0.02900
C1140       C  0.50057536  0.53732114  0.76037467     0.03700
C1141       C  0.49887682  0.50045834  0.77656426    -0.12400
C1142       C  0.50543403  0.49973346  0.81380485     0.01200
C1143       C  0.51012309  0.53470710  0.83514369    -0.10900
C1144       C  0.51188153  0.57250276  0.81940451     0.03700
C1145       C  0.51057048  0.57406008  0.78164786    -0.10300
H1146       H  0.49134455  0.47186066  0.76042155     0.09300
H1147       H  0.51131451  0.53077671  0.86376444     0.06900
H1148       H  0.51362570  0.60260024  0.76828129     0.06700
C1149       C  0.52465201  0.64540720  0.90035408     0.03700
C1150       C  0.52144295  0.67974557  0.88438270    -0.12400
C1151       C  0.51261185  0.67878074  0.84739182     0.01200
C1152       C  0.50744548  0.64324255  0.82647018    -0.10900
C1153       C  0.51334941  0.60931858  0.84166154     0.03700
C1154       C  0.52140602  0.61127326  0.87881779    -0.10300
H1155       H  0.52615742  0.37424677  0.90092215     0.09300
H1156       H  0.49928440  0.64335044  0.79855781     0.06900
H1157       H  0.52857939  0.58803523  0.89147349     0.06700
C1158       C  0.39305770  0.63185684  0.76043146     0.03700
C1159       C  0.35670063  0.60491479  0.78199557    -0.12400
C1160       C  0.35876982  0.60772330  0.81976200     0.01200
C1161       C  0.39664825  0.64388723  0.83524898    -0.10900
C1162       C  0.43090757  0.34173872  0.81394909     0.03700
C1163       C  0.42994598  0.33443869  0.77669922    -0.10300
H1164       H  0.66139050  0.57941298  0.76877787     0.09300
H1165       H  0.40025657  0.31645322  0.86403685     0.06900
H1166       H  0.45845397  0.35548929  0.76045082     0.06700
C1167       C  0.61917427  0.54789688  0.90089154     0.03700
C1168       C  0.58451899  0.51067761  0.88482838    -0.12400
C1169       C  0.58551142  0.50275699  0.84786459     0.01200
C1170       C  0.62128896  0.53278610  0.82701889    -0.10900
C1171       C  0.32215566  0.57240569  0.84221327     0.03700
C1172       C  0.32041393  0.57842599  0.87943115    -0.10300
H1173       H  0.55638470  0.48827790  0.90087655     0.09300
H1174       H  0.62110178  0.52442168  0.79913288     0.06900
H1175       H  0.34411251  0.60859123  0.89215242     0.06700
C1176       C  0.38240135  0.40702922  0.90082418     0.03700
C1177       C  0.41975665  0.40977088  0.88484251    -0.12400
C1178       C  0.42781155  0.41878399  0.84788210     0.01200
C1179       C  0.39776702  0.42451573  0.82699212    -0.10900
C1180       C  0.35799384  0.41880069  0.84212798     0.03700
C1181       C  0.35180348  0.41078917  0.87927622    -0.10300
H1182       H  0.44216740  0.40412102  0.90094825     0.09300
H1183       H  0.40614447  0.43282306  0.79910869     0.06900
H1184       H  0.65476471  0.40388300  0.89185818     0.06700
C1185       C  0.63134438  0.42943432  0.76043246     0.03700
C1186       C  0.59596189  0.43094136  0.77640189    -0.12400
C1187       C  0.58901387  0.42531826  0.81373363     0.01200
C1188       C  0.61983840  0.42179352  0.83529693    -0.10900
C1189       C  0.65588924  0.41989746  0.81973353     0.03700
C1190       C  0.65846581  0.42026775  0.78197834    -0.10300
H1191       H  0.57456810  0.43777701  0.76001963     0.09300
H1192       H  0.61505880  0.42146230  0.86392525     0.06900
H1193       H  0.35068285  0.41716793  0.76876755     0.06700
C1194       C  0.50669971  0.46145062  0.82956507     0.02900
C1195       C  0.54764866  0.46316214  0.83175831     0.02900
C1196       C  0.54937386  0.42401417  0.82937532     0.02900
C1197       C  0.51015748  0.38307262  0.83171541     0.02900
C1198       C  0.46925501  0.38135261  0.82957354     0.02900
C1199       C  0.46751727  0.42057417  0.83186476     0.02900
O1200       O  0.31489898  0.61221195  0.06465275    -0.77900
C1201       C  0.63177366  0.39329341  0.06257153     0.83200
O1202       O  0.53588713  0.55604115  0.03250614    -0.79000
O1203       O  0.57345350  0.35116135  0.94725181    -0.80500
O1204       O  0.37161544  0.35694751  0.94721861    -0.80300
O1205       O  0.37528528  0.64915272  0.03242381    -0.78900
Zn1206     Zn  0.62020912  0.64452555  0.04650302     1.55700
O1207       O  0.67852646  0.40281293  0.95490467    -0.80300
Cd1208     Cd  0.33910319  0.64132178  0.98495740     1.59700
Cd1209     Cd  0.56412523  0.59178391  0.98486094     1.59600
O1210       O  0.65171053  0.58447574  0.95529998    -0.80300
O1211       O  0.61980626  0.64430988  0.99730187    -1.90800
Cd1212     Cd  0.62199841  0.36699400  0.98513378     1.59900
O1213       O  0.57973289  0.55912107  0.94688361    -0.80200
O1214       O  0.61475642  0.39545131  0.03281332    -0.78900
C1215       C  0.53825649  0.57519420  0.06231352     0.83600
C1216       C  0.35624670  0.63195492  0.06217373     0.83300
O1217       O  0.65139019  0.37156144  0.06501459    -0.77900
C1218       C  0.36795578  0.38972382  0.93744091     0.84100
O1219       O  0.56003079  0.61654409  0.06478311    -0.77900
C1220       C  0.61607064  0.56226911  0.93746729     0.84200
C1221       C  0.54185229  0.64838197  0.93700819     0.84600
O1222       O  0.52831504  0.61266622  0.95477870    -0.80400
O1223       O  0.36549932  0.47202995  0.59911431    -0.77900
C1224       C  0.65828421  0.54269430  0.60166208     0.83200
O1225       O  0.47884657  0.62258060  0.63037148    -0.79000
O1226       O  0.35940261  0.58724957  0.70929500    -0.80500
O1227       O  0.34266231  0.44077241  0.70921569    -0.80300
O1228       O  0.40544061  0.45141981  0.63060668    -0.78900
Zn1229     Zn  0.39615892  0.53255328  0.61711104     1.55700
O1230       O  0.64294541  0.48098232  0.71483145    -0.80300
Cd1231     Cd  0.39813487  0.47915044  0.67845184     1.59700
Cd1232     Cd  0.45077015  0.58757955  0.67824066     1.59600
O1233       O  0.44893558  0.49722171  0.71473203    -0.80300
O1234       O  0.39682292  0.53280218  0.66634397    -1.90800
Cd1235     Cd  0.34197282  0.53171801  0.67857319     1.59900
O1236       O  0.48901797  0.57046497  0.70915609    -0.80200
O1237       O  0.63943062  0.52426006  0.63112838    -0.78900
C1238       C  0.47758070  0.60340409  0.60085129     0.83600
C1239       C  0.38664778  0.45174916  0.60131358     0.83300
O1240       O  0.36633774  0.56328512  0.59911860    -0.77900
C1241       C  0.64897536  0.44970124  0.72495544     0.84100
O1242       O  0.45625819  0.56202203  0.59840155    -0.77900
C1243       C  0.48015276  0.53455032  0.72491301     0.84200
C1244       C  0.39548333  0.61426119  0.72486879     0.84600
O1245       O  0.43272576  0.62030893  0.71448377    -0.80400
C1246       C  0.37894771  0.97318328  0.09643971     0.03700
C1247       C  0.38521839  0.67649069  0.11654053    -0.12400
C1248       C  0.39546585  0.68031291  0.15350292     0.01200
C1249       C  0.40172593  0.98014908  0.16925449    -0.10900
C1250       C  0.39482599  0.94338218  0.14935842     0.03700
C1251       C  0.38378176  0.94029632  0.11288152    -0.10300
H1252       H  0.37754377  0.69924666  0.10359967     0.09300
H1253       H  0.41199143  0.98169934  0.19677495     0.06900
H1254       H  0.37670116  0.91108607  0.09776837     0.06700
C1255       C  0.40532019  0.75049191  0.23548590     0.05500
C1256       C  0.40583288  0.78690977  0.21973990    -0.12400
C1257       C  0.39978801  0.78822440  0.18248975     0.01200
C1258       C  0.39684519  0.75419267  0.16054953    -0.10900
C1259       C  0.39625727  0.71678066  0.17592146     0.03700
C1260       C  0.39710331  0.71465318  0.21373902    -0.10300
H1261       H  0.41220562  0.81488667  0.23627882     0.09300
H1262       H  0.39592441  0.75815829  0.13186205     0.06900
H1263       H  0.39459627  0.68626613  0.22694766     0.06700
C1264       C  0.62393552  0.74155467  0.09580119     0.03700
C1265       C  0.65699776  0.77911610  0.11232788    -0.12400
C1266       C  0.65382359  0.78709176  0.14878376     0.01200
C1267       C  0.61689333  0.75741481  0.16856285    -0.10900
C1268       C  0.58411778  0.71722426  0.15310031     0.03700
C1269       C  0.58808450  0.71074930  0.11617902    -0.10300
H1270       H  0.68632703  0.80113404  0.09728501     0.09300
H1271       H  0.61530060  0.76627708  0.19601831     0.06900
H1272       H  0.56531779  0.68034490  0.10321873     0.06700
C1273       C  0.51308357  0.99021669  0.23595183     0.03700
C1274       C  0.47673965  0.95425602  0.22019733    -0.12400
C1275       C  0.47548561  0.94695633  0.18294916     0.01200
C1276       C  0.50957162  0.97798103  0.16104088    -0.10900
C1277       C  0.54770997  0.68164752  0.17557200     0.03700
C1278       C  0.54983483  0.68490547  0.21337671    -0.10300
H1279       H  0.44876339  0.93258743  0.23672073     0.09300
H1280       H  0.50566336  0.97300804  0.13236290     0.06900
H1281       H  0.57832812  0.71069039  0.22654812     0.06700
C1282       C  0.60689486  0.85935900  0.23546918     0.03700
C1283       C  0.64250257  0.85816508  0.21978683    -0.12400
C1284       C  0.64996638  0.86405776  0.18253598     0.01200
C1285       C  0.61914219  0.86740718  0.16052495    -0.10900
C1286       C  0.58261827  0.86860860  0.17585899     0.03700
C1287       C  0.57986204  0.86833537  0.21366929    -0.10300
H1288       H  0.66379524  0.85140476  0.23638339     0.09300
H1289       H  0.62396538  0.86817720  0.13183231     0.06900
H1290       H  0.55440959  0.87167238  0.22680118     0.06700
C1291       C  0.52229926  0.88427213  0.09608433     0.03700
C1292       C  0.55314985  0.87932232  0.11647396    -0.12400
C1293       C  0.54688232  0.86926446  0.15346054     0.01200
C1294       C  0.50676772  0.86203469  0.16901278    -0.10900
C1295       C  0.47692890  0.86903824  0.14915745     0.03700
C1296       C  0.48480075  0.87990510  0.11264130    -0.10300
H1297       H  0.58348748  0.88679870  0.10347307     0.09300
H1298       H  0.49811638  0.85185794  0.19656066     0.06900
H1299       H  0.46272308  0.88707861  0.09754484     0.06700
C1300       C  0.39613754  0.90581472  0.16605213     0.02900
C1301       C  0.43677948  0.90712892  0.16799741     0.02900
C1302       C  0.43799086  0.86764683  0.16587576     0.02900
C1303       C  0.39866668  0.82700139  0.16762778     0.02900
C1304       C  0.35797526  0.82585529  0.16564826     0.02900
C1305       C  0.35660520  0.86514235  0.16780981     0.02900
O1306       O  0.53929517  0.72567103  0.39771371    -0.77900
C1307       C  0.51767656  0.83685712  0.39527029     0.83200
O1308       O  0.42636732  0.99803324  0.36578808    -0.79000
O1309       O  0.45623661  0.79065547  0.28149484    -0.80500
O1310       O  0.59568975  0.80823838  0.28142527    -0.80300
O1311       O  0.59936327  0.76477374  0.36537204    -0.78900
Zn1312     Zn  0.50815506  0.75508712  0.37954371     1.55700
O1313       O  0.56201059  0.84786099  0.28662416    -0.80300
Cd1314     Cd  0.56362333  0.75737222  0.31775807     1.59700
Cd1315     Cd  0.45490660  0.70059947  0.31769662     1.59600
O1316       O  0.54701729  0.70227645  0.28652495    -0.80300
O1317       O  0.50845674  0.75570341  0.33020946    -1.90800
Cd1318     Cd  0.50703100  0.80936159  0.31789298     1.59900
O1319       O  0.47375728  0.66903663  0.28089549    -0.80200
O1320       O  0.50005664  0.83788715  0.36550226    -0.78900
C1321       C  0.42666105  0.68256275  0.39477289     0.83600
C1322       C  0.58069790  0.74638461  0.39493527     0.83300
O1323       O  0.53736972  0.81521048  0.39841710    -0.77900
C1324       C  0.58925896  0.83917637  0.27101415     0.84100
O1325       O  0.44766140  0.72391577  0.39786227    -0.77900
C1326       C  0.51113692  0.67530772  0.27066941     0.84200
C1327       C  0.42520406  0.75326773  0.27119485     0.84600
O1328       O  0.41622498  0.71737731  0.28703711    -0.80400
C1329       C  0.49540756  0.96340465  0.56776046     0.03700
C1330       C  0.53261224  0.96676036  0.55163290    -0.12400
C1331       C  0.53928362  0.64179330  0.51461113     0.01200
C1332       C  0.50893130  0.64696204  0.49359063    -0.10900
C1333       C  0.46934174  0.64163630  0.50883846     0.03700
C1334       C  0.46545695  0.96932949  0.54706296    -0.10300
H1335       H  0.55455990  0.95993994  0.56729713     0.09300
H1336       H  0.51680119  0.65403130  0.46553929     0.06900
H1337       H  0.43639116  0.96441107  0.56075756     0.06700
C1338       C  0.41112686  0.99263773  0.42903444     0.03700
C1339       C  0.44129078  0.98705333  0.44974217    -0.12400
C1340       C  0.43575885  0.97919933  0.48721369     0.01200
C1341       C  0.39692357  0.97531875  0.50282132    -0.10900
C1342       C  0.36635642  0.98016596  0.48189685     0.03700
C1343       C  0.37379057  0.98896592  0.44511667    -0.10300
H1344       H  0.47051048  0.99232744  0.43609112     0.09300
H1345       H  0.38979411  0.96972468  0.53108652     0.06900
H1346       H  0.35170493  0.99557165  0.42943210     0.06700
C1347       C  0.39566591  0.76986119  0.56730991     0.03700
C1348       C  0.43126132  0.80005759  0.54651050    -0.12400
C1349       C  0.43384765  0.79414433  0.50916283     0.01200
C1350       C  0.39911879  0.75499892  0.49368125    -0.10900
C1351       C  0.36353841  0.72457757  0.51460039     0.03700
C1352       C  0.36204154  0.73236331  0.55132306    -0.10300
H1353       H  0.45494179  0.82955632  0.55999506     0.09300
H1354       H  0.39792804  0.74750811  0.46551663     0.06900
H1355       H  0.33335647  0.71034595  0.56704346     0.06700
C1356       C  0.50964178  0.85345499  0.42874288     0.03700
C1357       C  0.47352422  0.82378009  0.44936441    -0.12400
C1358       C  0.47136101  0.82921434  0.48685434     0.01200
C1359       C  0.50666548  0.86775046  0.50253253    -0.10900
C1360       C  0.54228016  0.89809355  0.48164978     0.03700
C1361       C  0.54367507  0.89050546  0.44488760    -0.10300
H1362       H  0.44911302  0.79489902  0.43562037     0.09300
H1363       H  0.50837071  0.87474061  0.53083747     0.06900
H1364       H  0.57257305  0.91224750  0.42926408     0.06700
C1365       C  0.63556067  0.86839391  0.56727394     0.03700
C1366       C  0.63147704  0.90186651  0.55129428    -0.12400
C1367       C  0.62213144  0.90029306  0.51459839     0.01200
C1368       C  0.61683644  0.86470080  0.49368479    -0.10900
C1369       C  0.62134529  0.83005750  0.50913848     0.03700
C1370       C  0.63014605  0.83278150  0.54647597    -0.10300
H1371       H  0.63813174  0.93056519  0.56698341     0.09300
H1372       H  0.61036978  0.86580685  0.46554241     0.06900
H1373       H  0.63621142  0.80924652  0.55991678     0.06700
C1374       C  0.60513736  0.75446667  0.42857028     0.03700
C1375       C  0.61155162  0.79058766  0.44919229    -0.12400
C1376       C  0.61881983  0.79258317  0.48676326     0.01200
C1377       C  0.62176455  0.75717988  0.50249495    -0.10900
C1378       C  0.61679445  0.72173466  0.48160586     0.03700
C1379       C  0.60806528  0.72041496  0.44479744    -0.10300
H1380       H  0.60738150  0.81514660  0.43537794     0.09300
H1381       H  0.29332243  0.75529589  0.53084915     0.06900
H1382       H  0.60108921  0.69157457  0.42917732     0.06700
C1383       C  0.62095153  0.93840538  0.49899007     0.02900
C1384       C  0.58043094  0.93730896  0.49736044     0.02900
C1385       C  0.57935417  0.97674096  0.49913636     0.02900
C1386       C  0.61811355  0.68376813  0.49736156     0.02900
C1387       C  0.65878380  0.68510994  0.49898097     0.02900
C1388       C  0.66039057  0.97893927  0.49755651     0.02900
C1389       C  0.50033774  0.87091135  0.76046440     0.03700
C1390       C  0.49850323  0.83389451  0.77642044    -0.12400
C1391       C  0.50446398  0.83265356  0.81368493     0.01200
C1392       C  0.50864794  0.86726039  0.83528229    -0.10900
C1393       C  0.51072689  0.90530537  0.81975715     0.03700
C1394       C  0.50992045  0.90734057  0.78199116    -0.10300
H1395       H  0.49137270  0.80557555  0.76004730     0.09300
H1396       H  0.50941722  0.86299047  0.86390422     0.06900
H1397       H  0.51316638  0.93603290  0.76876468     0.06700
C1398       C  0.52438225  0.97832944  0.90089449     0.03700
C1399       C  0.52155198  0.01290568  0.88497399    -0.12400
C1400       C  0.51256003  0.01199203  0.84802927     0.01200
C1401       C  0.50683100  0.97625882  0.82710160    -0.10900
C1402       C  0.51238925  0.94208840  0.84219585     0.03700
C1403       C  0.52055348  0.94393904  0.87933646    -0.10300
H1404       H  0.52662691  0.70762317  0.90051834     0.09300
H1405       H  0.49851233  0.97640046  0.79924133     0.06900
H1406       H  0.52739126  0.92041054  0.89191067     0.06700
C1407       C  0.39335202  0.96558108  0.76063545     0.03700
C1408       C  0.35679505  0.93864754  0.78198668    -0.12400
C1409       C  0.35850705  0.94134034  0.81975962     0.01200
C1410       C  0.39636030  0.97743640  0.83545478    -0.10900
C1411       C  0.43114504  0.67443251  0.81363388     0.03700
C1412       C  0.42999451  0.66717752  0.77636482    -0.10300
H1413       H  0.66160587  0.91322258  0.76858174     0.09300
H1414       H  0.40089162  0.64901554  0.86386019     0.06900
H1415       H  0.45828831  0.68843464  0.75998571     0.06700
C1416       C  0.61868197  0.88085746  0.90064592     0.03700
C1417       C  0.58392049  0.84387157  0.88445111    -0.12400
C1418       C  0.58481731  0.83631135  0.84742079     0.01200
C1419       C  0.62048570  0.86659028  0.82658783    -0.10900
C1420       C  0.32161150  0.90591521  0.84199004     0.03700
C1421       C  0.32000916  0.91144320  0.87929479    -0.10300
H1422       H  0.55582783  0.82132476  0.90047256     0.09300
H1423       H  0.62007696  0.85852800  0.79859568     0.06900
H1424       H  0.34393333  0.94130459  0.89223228     0.06700
C1425       C  0.38236783  0.73960949  0.90052716     0.03700
C1426       C  0.41932556  0.74182923  0.88427493    -0.12400
C1427       C  0.42733514  0.75119053  0.84738770     0.01200
C1428       C  0.39753819  0.75759237  0.82678683    -0.10900
C1429       C  0.35795113  0.75213513  0.84211140     0.03700
C1430       C  0.35194573  0.74408887  0.87928572    -0.10300
H1431       H  0.44160178  0.73575231  0.90016818     0.09300
H1432       H  0.40601579  0.76628710  0.79897408     0.06900
H1433       H  0.65523361  0.73781155  0.89212022     0.06700
C1434       C  0.63184350  0.76390229  0.76054932     0.03700
C1435       C  0.59661237  0.76563264  0.77654079    -0.12400
C1436       C  0.58929703  0.75938533  0.81379577     0.01200
C1437       C  0.61983172  0.75533872  0.83538137    -0.10900
C1438       C  0.65596282  0.75360279  0.81980849     0.03700
C1439       C  0.65867188  0.75429790  0.78204351    -0.10300
H1440       H  0.57542889  0.77280801  0.76020009     0.09300
H1441       H  0.61472612  0.75435436  0.86400350     0.06900
H1442       H  0.35071201  0.75097701  0.76876390     0.06700
C1443       C  0.50605628  0.79439542  0.82909970     0.02900
C1444       C  0.54718066  0.79653034  0.83135810     0.02900
C1445       C  0.54936005  0.75761728  0.82921906     0.02900
C1446       C  0.51037883  0.71645398  0.83140191     0.02900
C1447       C  0.46929275  0.71431319  0.82910462     0.02900
C1448       C  0.46711239  0.75331397  0.83126569     0.02900
O1449       O  0.31368020  0.94475802  0.06490101    -0.77900
C1450       C  0.63277937  0.72650337  0.06187451     0.83200
O1451       O  0.53555807  0.88874272  0.03249077    -0.79000
O1452       O  0.57500093  0.68466231  0.94653986    -0.80500
O1453       O  0.37131521  0.68911212  0.94659667    -0.80300
O1454       O  0.37431286  0.98116898  0.03275830    -0.78900
Zn1455     Zn  0.61927259  0.97718670  0.04663244     1.55700
O1456       O  0.67971721  0.73602977  0.95513627    -0.80300
Cd1457     Cd  0.33885384  0.97396620  0.98505493     1.59700
Cd1458     Cd  0.56399784  0.92454388  0.98496526     1.59600
O1459       O  0.65135198  0.91725406  0.95508042    -0.80300
O1460       O  0.61965734  0.97714891  0.99742905    -1.90800
Cd1461     Cd  0.62288547  0.69996461  0.98477065     1.59900
O1462       O  0.57933766  0.89182904  0.94685413    -0.80200
O1463       O  0.61539510  0.72831843  0.03222770    -0.78900
C1464       C  0.53730135  0.90802475  0.06207152     0.83600
C1465       C  0.35504099  0.96427489  0.06250693     0.83300
O1466       O  0.65270534  0.70505775  0.06421613    -0.77900
C1467       C  0.36823888  0.72232480  0.93716000     0.84100
O1468       O  0.55871163  0.94940311  0.06428003    -0.77900
C1469       C  0.61565782  0.89503905  0.93731068     0.84200
C1470       C  0.54170252  0.98125164  0.93748625     0.84600
O1471       O  0.52814530  0.94551480  0.95520971    -0.80400
O1472       O  0.36752849  0.80711344  0.59857520    -0.77900
C1473       C  0.65961746  0.87666869  0.60110494     0.83200
O1474       O  0.47958382  0.95777972  0.63096348    -0.79000
O1475       O  0.35997422  0.92151419  0.70908671    -0.80500
O1476       O  0.34296317  0.77479571  0.70924960    -0.80300
O1477       O  0.40569510  0.78482766  0.63062581    -0.78900
Zn1478     Zn  0.39789442  0.86738732  0.61700342     1.55700
O1479       O  0.64361153  0.81534399  0.71477268    -0.80300
Cd1480     Cd  0.39843166  0.81297355  0.67832658     1.59700
Cd1481     Cd  0.45132767  0.92180544  0.67843000     1.59600
O1482       O  0.44915926  0.83116290  0.71457102    -0.80300
O1483       O  0.39758351  0.86694171  0.66624302    -1.90800
Cd1484     Cd  0.34273532  0.86591923  0.67833669     1.59900
O1485       O  0.48942173  0.90447025  0.70923632    -0.80200
O1486       O  0.64063799  0.85821474  0.63054521    -0.78900
C1487       C  0.47919608  0.93905871  0.60142996     0.83600
C1488       C  0.38763691  0.78584324  0.60111091     0.83300
O1489       O  0.36770045  0.89761147  0.59873967    -0.77900
C1490       C  0.64947779  0.78399735  0.72500655     0.84100
O1491       O  0.45837581  0.89767125  0.59874827    -0.77900
C1492       C  0.48033434  0.86843793  0.72490081     0.84200
C1493       C  0.39592868  0.94817614  0.72502339     0.84600
O1494       O  0.43316892  0.95405594  0.71489400    -0.80400
C1495       C  0.71274503  0.30706223  0.09616540     0.03700
C1496       C  0.71709128  0.00889087  0.11686747    -0.12400
C1497       C  0.72760495  0.01290720  0.15376563     0.01200
C1498       C  0.73535392  0.31359968  0.16898091    -0.10900
C1499       C  0.72794050  0.27663120  0.14907627     0.03700
C1500       C  0.71685593  0.27372167  0.11261200    -0.10300
H1501       H  0.70923689  0.03153386  0.10396543     0.09300
H1502       H  0.74546791  0.31489529  0.19650255     0.06900
H1503       H  0.70933138  0.24440298  0.09747485     0.06700
C1504       C  0.73821724  0.08332739  0.23561405     0.05500
C1505       C  0.73920897  0.11998439  0.21985359    -0.12400
C1506       C  0.73300936  0.12130370  0.18262844     0.01200
C1507       C  0.72957356  0.08704368  0.16070730    -0.10900
C1508       C  0.72851960  0.04943034  0.17612252     0.03700
C1509       C  0.72922822  0.04722903  0.21393348    -0.10300
H1510       H  0.74602340  0.14810963  0.23636901     0.09300
H1511       H  0.72864604  0.09095958  0.13200912     0.06900
H1512       H  0.72616961  0.01859659  0.22714647     0.06700
C1513       C  0.95654743  0.07419813  0.09647735     0.03700
C1514       C  0.98975736  0.11174613  0.11286651    -0.12400
C1515       C  0.98686714  0.11989233  0.14931899     0.01200
C1516       C  0.94997938  0.09035950  0.16929107    -0.10900
C1517       C  0.91686088  0.05026390  0.15390583     0.03700
C1518       C  0.92070324  0.04360453  0.11697769    -0.10300
H1519       H  0.01901730  0.13364209  0.09769524     0.09300
H1520       H  0.94866692  0.09924922  0.19678744     0.06900
H1521       H  0.89786458  0.01317885  0.10408142     0.06700
C1522       C  0.84587620  0.32373209  0.23583265     0.03700
C1523       C  0.80951385  0.28787870  0.21996419    -0.12400
C1524       C  0.80864786  0.28028359  0.18277842     0.01200
C1525       C  0.84313920  0.31110545  0.16100194    -0.10900
C1526       C  0.88026735  0.01482869  0.17639649     0.03700
C1527       C  0.88222441  0.01799272  0.21421841    -0.10300
H1528       H  0.78129548  0.26644822  0.23635652     0.09300
H1529       H  0.83955148  0.30591964  0.13234007     0.06900
H1530       H  0.91045266  0.04404836  0.22744901     0.06700
C1531       C  0.93953250  0.19078656  0.23535363     0.03700
C1532       C  0.97534305  0.19011828  0.21958061    -0.12400
C1533       C  0.98310780  0.19690638  0.18241372     0.01200
C1534       C  0.95235847  0.20050543  0.16051223    -0.10900
C1535       C  0.91548501  0.20097767  0.17589817     0.03700
C1536       C  0.91229020  0.19964332  0.21370718    -0.10300
H1537       H  0.99666253  0.18325123  0.23604215     0.09300
H1538       H  0.95752265  0.20198416  0.13184235     0.06900
H1539       H  0.88651331  0.20227524  0.22696711     0.06700
C1540       C  0.85562248  0.21759870  0.09621285     0.03700
C1541       C  0.88636066  0.21244300  0.11658171    -0.12400
C1542       C  0.87992058  0.20205097  0.15352370     0.01200
C1543       C  0.83981080  0.19490994  0.16904113    -0.10900
C1544       C  0.81010816  0.20213671  0.14920484     0.03700
C1545       C  0.81806512  0.21311860  0.11272152    -0.10300
H1546       H  0.91673008  0.22001771  0.10358210     0.09300
H1547       H  0.83102008  0.18465549  0.19654542     0.06900
H1548       H  0.79605566  0.22039825  0.09763599     0.06700
C1549       C  0.72925886  0.23894666  0.16567128     0.02900
C1550       C  0.76996136  0.24034099  0.16778733     0.02900
C1551       C  0.77119771  0.20082014  0.16590099     0.02900
C1552       C  0.73189598  0.16012492  0.16780896     0.02900
C1553       C  0.69118192  0.15890749  0.16580933     0.02900
C1554       C  0.68976640  0.19819030  0.16759012     0.02900
O1555       O  0.87225842  0.05928830  0.39856852    -0.77900
C1556       C  0.85090071  0.17020612  0.39507161     0.83200
O1557       O  0.75940107  0.33185931  0.36577541    -0.79000
O1558       O  0.78977030  0.12333765  0.28126463    -0.80500
O1559       O  0.92822700  0.13953137  0.28126193    -0.80300
O1560       O  0.93218473  0.09703306  0.36574633    -0.78900
Zn1561     Zn  0.84166484  0.08887348  0.37978008     1.55700
O1562       O  0.89573848  0.18024797  0.28701416    -0.80300
Cd1563     Cd  0.89633491  0.08931977  0.31819833     1.59700
Cd1564     Cd  0.78777380  0.03347338  0.31812923     1.59600
O1565       O  0.87937919  0.03361580  0.28781665    -0.80300
O1566       O  0.84153055  0.08838951  0.33046455    -1.90800
Cd1567     Cd  0.84030395  0.14204741  0.31793155     1.59900
O1568       O  0.80624556  0.00131250  0.28167728    -0.80200
O1569       O  0.83268777  0.17056332  0.36543195    -0.78900
C1570       C  0.76041704  0.01689608  0.39534214     0.83600
C1571       C  0.91361098  0.07933077  0.39551014     0.83300
O1572       O  0.87147566  0.14941013  0.39790754    -0.77900
C1573       C  0.92226644  0.17083816  0.27102703     0.84100
O1574       O  0.78124405  0.05829681  0.39800440    -0.77900
C1575       C  0.84354770  0.00719223  0.27167113     0.84200
C1576       C  0.75842017  0.08603380  0.27116155     0.84600
O1577       O  0.74923005  0.05015662  0.28713529    -0.80400
C1578       C  0.82796770  0.29570623  0.56755356     0.03700
C1579       C  0.86510538  0.29898806  0.55139241    -0.12400
C1580       C  0.87344149  0.97560888  0.51484396     0.01200
C1581       C  0.84296842  0.98062362  0.49393100    -0.10900
C1582       C  0.80426223  0.97701067  0.50956554     0.03700
C1583       C  0.79808431  0.30182272  0.54692591    -0.10300
H1584       H  0.88696899  0.29199221  0.56700143     0.09300
H1585       H  0.85001925  0.98607374  0.46564383     0.06900
H1586       H  0.76895678  0.29675899  0.56060441     0.06700
C1587       C  0.74427884  0.32641053  0.42906326     0.03700
C1588       C  0.77452346  0.32093353  0.44977168    -0.12400
C1589       C  0.76886395  0.31275382  0.48720769     0.01200
C1590       C  0.73002940  0.30884289  0.50282771    -0.10900
C1591       C  0.69945727  0.31368760  0.48191400     0.03700
C1592       C  0.70684702  0.32249347  0.44513675    -0.10300
H1593       H  0.80381808  0.32638810  0.43614531     0.09300
H1594       H  0.72289502  0.30320075  0.53109110     0.06900
H1595       H  0.68466333  0.32896321  0.42945614     0.06700
C1596       C  0.72922117  0.10304314  0.56765929     0.03700
C1597       C  0.76496008  0.13308994  0.54687088    -0.12400
C1598       C  0.76759477  0.12703718  0.50951523     0.01200
C1599       C  0.73293502  0.08789391  0.49410141    -0.10900
C1600       C  0.69734084  0.05761983  0.51501929     0.03700
C1601       C  0.69568283  0.06549322  0.55169324    -0.10300
H1602       H  0.78861856  0.16262813  0.56031825     0.09300
H1603       H  0.73180151  0.08030496  0.46596397     0.06900
H1604       H  0.66690330  0.04355080  0.56735303     0.06700
C1605       C  0.84278926  0.18656024  0.42871576     0.03700
C1606       C  0.80681079  0.15675736  0.44944866    -0.12400
C1607       C  0.80493203  0.16203169  0.48704348     0.01200
C1608       C  0.84028366  0.20047287  0.50269054    -0.10900
C1609       C  0.87561263  0.23099493  0.48172171     0.03700
C1610       C  0.87683296  0.22359416  0.44489689    -0.10300
H1611       H  0.78228452  0.12796670  0.43568621     0.09300
H1612       H  0.84221996  0.20729075  0.53103959     0.06900
H1613       H  0.90560587  0.24551470  0.42922266     0.06700
C1614       C  0.96850946  0.20152587  0.56760552     0.03700
C1615       C  0.96461014  0.23509635  0.55156872    -0.12400
C1616       C  0.95567395  0.23370829  0.51479807     0.01200
C1617       C  0.95116001  0.19848000  0.49379997    -0.10900
C1618       C  0.95523644  0.16361283  0.50935732     0.03700
C1619       C  0.96309736  0.16589747  0.54683100    -0.10300
H1620       H  0.97105519  0.26370364  0.56729444     0.09300
H1621       H  0.94563172  0.20007274  0.46552663     0.06900
H1622       H  0.96836554  0.14194633  0.56046611     0.06700
C1623       C  0.93827986  0.08758834  0.42899594     0.03700
C1624       C  0.94459179  0.12366609  0.44960031    -0.12400
C1625       C  0.95292137  0.12620551  0.48700010     0.01200
C1626       C  0.95678064  0.09123840  0.50259887    -0.10900
C1627       C  0.95108070  0.05540600  0.48181176     0.03700
C1628       C  0.94166702  0.05376705  0.44512360    -0.10300
H1629       H  0.93941275  0.14768436  0.43596366     0.09300
H1630       H  0.62950863  0.08995012  0.53079918     0.06900
H1631       H  0.93445307  0.02481834  0.42955930     0.06700
C1632       C  0.95419779  0.27168414  0.49917505     0.02900
C1633       C  0.91356719  0.27033226  0.49741589     0.02900
C1634       C  0.91216864  0.30961673  0.49902510     0.02900
C1635       C  0.95212507  0.01725872  0.49755733     0.02900
C1636       C  0.99261757  0.01833814  0.49933504     0.02900
C1637       C  0.99344491  0.31232115  0.49755831     0.02900
C1638       C  0.83417530  0.20451575  0.76065819     0.03700
C1639       C  0.83231734  0.16746103  0.77666186    -0.12400
C1640       C  0.83827989  0.16621887  0.81396310     0.01200
C1641       C  0.84236805  0.20084025  0.83551864    -0.10900
C1642       C  0.84418355  0.23877521  0.81996697     0.03700
C1643       C  0.84369269  0.24089865  0.78219718    -0.10300
H1644       H  0.82517216  0.13913087  0.76030276     0.09300
H1645       H  0.84323888  0.19662615  0.86413393     0.06900
H1646       H  0.84700331  0.26960067  0.76894263     0.06700
C1647       C  0.85645867  0.31151721  0.90103176     0.03700
C1648       C  0.85392914  0.34616677  0.88488949    -0.12400
C1649       C  0.84531517  0.34525823  0.84786299     0.01200
C1650       C  0.83995037  0.30961501  0.82701883    -0.10900
C1651       C  0.84521476  0.27535450  0.84232783     0.03700
C1652       C  0.85249366  0.27694819  0.87960943    -0.10300
H1653       H  0.86044960  0.04090684  0.90112059     0.09300
H1654       H  0.83211821  0.30991873  0.79904980     0.06900
H1655       H  0.85874458  0.25315741  0.89241673     0.06700
C1656       C  0.72628867  0.29929424  0.76062194     0.03700
C1657       C  0.68965779  0.27260961  0.78202652    -0.12400
C1658       C  0.69152755  0.27537047  0.81979219     0.01200
C1659       C  0.72945179  0.31138116  0.83541864    -0.10900
C1660       C  0.76457350  0.00788886  0.81405183     0.03700
C1661       C  0.76364546  0.00068345  0.77678788    -0.10300
H1662       H  0.99431125  0.24721216  0.76873720     0.09300
H1663       H  0.73364860  0.98261830  0.86406852     0.06900
H1664       H  0.79212073  0.02185991  0.76055603     0.06700
C1665       C  0.95220704  0.21521604  0.90089254     0.03700
C1666       C  0.91771558  0.17776697  0.88492409    -0.12400
C1667       C  0.91860168  0.16988191  0.84792873     0.01200
C1668       C  0.95413949  0.20021371  0.82697599    -0.10900
C1669       C  0.65484702  0.23998015  0.84214307     0.03700
C1670       C  0.65308964  0.24600221  0.87933463    -0.10300
H1671       H  0.88979794  0.15515035  0.90107117     0.09300
H1672       H  0.95395922  0.19196168  0.79905012     0.06900
H1673       H  0.67651726  0.27633870  0.89198271     0.06700
C1674       C  0.71618559  0.07317306  0.90125481     0.03700
C1675       C  0.75329493  0.07568403  0.88501521    -0.12400
C1676       C  0.76110104  0.08474293  0.84805646     0.01200
C1677       C  0.73095176  0.09046413  0.82736874    -0.10900
C1678       C  0.69139136  0.08503139  0.84272019     0.03700
C1679       C  0.68561900  0.07737897  0.87996611    -0.10300
H1680       H  0.77574868  0.06990048  0.90093699     0.09300
H1681       H  0.73923138  0.09870905  0.79947346     0.06900
H1682       H  0.98895091  0.07114901  0.89284595     0.06700
C1683       C  0.96551183  0.09736199  0.76120759     0.03700
C1684       C  0.93032409  0.09913490  0.77725956    -0.12400
C1685       C  0.92283279  0.09254496  0.81448218     0.01200
C1686       C  0.95311115  0.08797559  0.83599590    -0.10900
C1687       C  0.98932789  0.08640131  0.82040658     0.03700
C1688       C  0.99220443  0.08748640  0.78263264    -0.10300
H1689       H  0.90928085  0.10657385  0.76098819     0.09300
H1690       H  0.94777762  0.08656365  0.86460026     0.06900
H1691       H  0.68426134  0.08425560  0.76930065     0.06700
C1692       C  0.83980012  0.12790151  0.82951180     0.02900
C1693       C  0.88090151  0.12995789  0.83196927     0.02900
C1694       C  0.88296150  0.09093822  0.82994585     0.02900
C1695       C  0.84386819  0.04979979  0.83209167     0.02900
C1696       C  0.80281207  0.04773086  0.82966935     0.02900
C1697       C  0.80079447  0.08682082  0.83182161     0.02900
O1698       O  0.64737679  0.27912779  0.06485484    -0.77900
C1699       C  0.96526459  0.05895842  0.06256676     0.83200
O1700       O  0.86910771  0.22265755  0.03265014    -0.79000
O1701       O  0.90820745  0.01752598  0.94703319    -0.80500
O1702       O  0.70497629  0.02233505  0.94711845    -0.80300
O1703       O  0.70789669  0.31580540  0.03263874    -0.78900
Zn1704     Zn  0.95256255  0.31134321  0.04677314     1.55700
O1705       O  0.01317261  0.06909421  0.95580647    -0.80300
Cd1706     Cd  0.67217871  0.30868217  0.98514682     1.59700
Cd1707     Cd  0.89732143  0.25865286  0.98517757     1.59600
O1708       O  0.98502918  0.25210259  0.95512052    -0.80300
O1709       O  0.95275778  0.31153344  0.99754768    -1.90800
Cd1710     Cd  0.95609886  0.03288279  0.98527370     1.59900
O1711       O  0.91287826  0.22606369  0.94716608    -0.80200
O1712       O  0.94813461  0.06094915  0.03283665    -0.78900
C1713       C  0.87078340  0.24168012  0.06235437     0.83600
C1714       C  0.68872531  0.29855581  0.06233000     0.83300
O1715       O  0.98503894  0.03738820  0.06494777    -0.77900
C1716       C  0.70193030  0.05562942  0.93784046     0.84100
O1717       O  0.89212177  0.28304749  0.06480670    -0.77900
C1718       C  0.94926505  0.22953212  0.93752206     0.84200
C1719       C  0.87395383  0.31464805  0.93763859     0.84600
O1720       O  0.86099736  0.27893573  0.95525891    -0.80400
O1721       O  0.70052533  0.14003569  0.59872699    -0.77900
C1722       C  0.99260096  0.20976420  0.60141959     0.83200
O1723       O  0.81259437  0.29067195  0.63081204    -0.79000
O1724       O  0.69294239  0.25449617  0.70945690    -0.80500
O1725       O  0.67681051  0.10851648  0.70993624    -0.80300
O1726       O  0.73917388  0.11845342  0.63091713    -0.78900
Zn1727     Zn  0.73080814  0.20033061  0.61721607     1.55700
O1728       O  0.97691752  0.14856500  0.71524769    -0.80300
Cd1729     Cd  0.73198875  0.14661392  0.67867175     1.59700
Cd1730     Cd  0.78462471  0.25529909  0.67861938     1.59600
O1731       O  0.78289266  0.16485588  0.71477370    -0.80300
O1732       O  0.73084333  0.20033987  0.66651769    -1.90800
Cd1733     Cd  0.67586241  0.19903330  0.67867108     1.59900
O1734       O  0.82298701  0.23815467  0.70950032    -0.80200
O1735       O  0.97367655  0.19132195  0.63088646    -0.78900
C1736       C  0.81198406  0.27166761  0.60136631     0.83600
C1737       C  0.72098990  0.11911505  0.60136266     0.83300
O1738       O  0.70068175  0.23062638  0.59897590    -0.77900
C1739       C  0.98312966  0.11749054  0.72563888     0.84100
O1740       O  0.79120097  0.23027027  0.59893800    -0.77900
C1741       C  0.81406789  0.20211487  0.72510407     0.84200
C1742       C  0.72890894  0.28157346  0.72515293     0.84600
O1743       O  0.76623506  0.28771560  0.71491237    -0.80400
C1744       C  0.71361290  0.64075512  0.09606826     0.03700
C1745       C  0.71826359  0.34304092  0.11655942    -0.12400
C1746       C  0.72860238  0.34684542  0.15348878     0.01200
C1747       C  0.73589407  0.64730323  0.16899469    -0.10900
C1748       C  0.72881196  0.61046670  0.14908304     0.03700
C1749       C  0.71807703  0.60762921  0.11254169    -0.10300
H1750       H  0.71092994  0.36601204  0.10356534     0.09300
H1751       H  0.74596777  0.64865920  0.19654204     0.06900
H1752       H  0.71091201  0.57841950  0.09739457     0.06700
C1753       C  0.73934763  0.41763574  0.23530036     0.05500
C1754       C  0.73986070  0.45400024  0.21950530    -0.12400
C1755       C  0.73359792  0.45513980  0.18229583     0.01200
C1756       C  0.73038103  0.42095350  0.16041171    -0.10900
C1757       C  0.72985711  0.38358333  0.17583968     0.03700
C1758       C  0.73110166  0.38172150  0.21365187    -0.10300
H1759       H  0.74630391  0.48203741  0.23599399     0.09300
H1760       H  0.72915326  0.42477437  0.13173627     0.06900
H1761       H  0.72878966  0.35347000  0.22694550     0.06700
C1762       C  0.95635592  0.40843335  0.09652154     0.03700
C1763       C  0.98954914  0.44597973  0.11293300    -0.12400
C1764       C  0.98706375  0.45372460  0.14954610     0.01200
C1765       C  0.95049759  0.42370926  0.16966943    -0.10900
C1766       C  0.91717647  0.38372344  0.15413575     0.03700
C1767       C  0.92074249  0.37755272  0.11706908    -0.10300
H1768       H  0.01860490  0.46811336  0.09764804     0.09300
H1769       H  0.94959528  0.43223725  0.19734140     0.06900
H1770       H  0.89785187  0.34727672  0.10401628     0.06700
C1771       C  0.84719613  0.65773682  0.23514192     0.03700
C1772       C  0.81071057  0.62176563  0.21950059    -0.12400
C1773       C  0.80949787  0.61396595  0.18231518     0.01200
C1774       C  0.84366118  0.64474160  0.16029742    -0.10900
C1775       C  0.88043257  0.34803418  0.17646928     0.03700
C1776       C  0.88201803  0.35120904  0.21427834    -0.10300
H1777       H  0.78262423  0.60044361  0.23605712     0.09300
H1778       H  0.83980734  0.63959662  0.13162877     0.06900
H1779       H  0.91019371  0.37717017  0.22761487     0.06700
C1780       C  0.94020952  0.52497861  0.23581833     0.03700
C1781       C  0.97598819  0.52414600  0.22008212    -0.12400
C1782       C  0.98393319  0.53109731  0.18292789     0.01200
C1783       C  0.95342791  0.53508198  0.16102568    -0.10900
C1784       C  0.91656171  0.53562709  0.17633840     0.03700
C1785       C  0.91320670  0.53415456  0.21414099    -0.10300
H1786       H  0.99710433  0.51699851  0.23654621     0.09300
H1787       H  0.95871579  0.53666686  0.13237209     0.06900
H1788       H  0.88740022  0.53679841  0.22733874     0.06700
C1789       C  0.85650820  0.55122355  0.09622323     0.03700
C1790       C  0.88747270  0.54672461  0.11685436    -0.12400
C1791       C  0.88099915  0.53655985  0.15383675     0.01200
C1792       C  0.84074374  0.52924753  0.16918844    -0.10900
C1793       C  0.81076063  0.53576323  0.14904856     0.03700
C1794       C  0.81868899  0.54635302  0.11250463    -0.10300
H1795       H  0.91797530  0.55455090  0.10398173     0.09300
H1796       H  0.83201494  0.51936094  0.19676697     0.06900
H1797       H  0.79649985  0.55318321  0.09721152     0.06700
C1798       C  0.73003124  0.57279094  0.16577168     0.02900
C1799       C  0.77065142  0.57403784  0.16755320     0.02900
C1800       C  0.77174247  0.53447633  0.16552009     0.02900
C1801       C  0.73236131  0.49384116  0.16747042     0.02900
C1802       C  0.69163428  0.49270488  0.16598382     0.02900
C1803       C  0.69044940  0.53212187  0.16801211     0.02900
O1804       O  0.87171158  0.39291745  0.39869477    -0.77900
C1805       C  0.85074014  0.50385098  0.39532588     0.83200
O1806       O  0.75971175  0.66418465  0.36505410    -0.79000
O1807       O  0.79037432  0.45771101  0.28121382    -0.80500
O1808       O  0.92819111  0.47319858  0.28146979    -0.80300
O1809       O  0.93173140  0.43019780  0.36585899    -0.78900
Zn1810     Zn  0.84129264  0.42259008  0.37987576     1.55700
O1811       O  0.89625893  0.51439898  0.28744529    -0.80300
Cd1812     Cd  0.89602577  0.42285917  0.31826747     1.59700
Cd1813     Cd  0.78755240  0.36743063  0.31814520     1.59600
O1814       O  0.87882225  0.36725499  0.28765043    -0.80300
O1815       O  0.84139459  0.42223844  0.33056308    -1.90800
Cd1816     Cd  0.84054836  0.47614645  0.31814205     1.59900
O1817       O  0.80572023  0.33513329  0.28149105    -0.80200
O1818       O  0.83260267  0.50436536  0.36569386    -0.78900
C1819       C  0.76009656  0.35068017  0.39534868     0.83600
C1820       C  0.91305755  0.41269987  0.39565001     0.83300
O1821       O  0.87129557  0.48303982  0.39807845    -0.77900
C1822       C  0.92262896  0.50480740  0.27139538     0.84100
O1823       O  0.78078919  0.39208237  0.39798320    -0.77900
C1824       C  0.84297958  0.34088475  0.27149037     0.84200
C1825       C  0.75899379  0.42043809  0.27108636     0.84600
O1826       O  0.74933697  0.38456778  0.28728078    -0.80400
C1827       C  0.82664627  0.62736585  0.56700678     0.03700
C1828       C  0.86463484  0.63222358  0.55127316    -0.12400
C1829       C  0.87278038  0.30823780  0.51467969     0.01200
C1830       C  0.84256472  0.31379816  0.49386537    -0.10900
C1831       C  0.80382139  0.31009830  0.50950493     0.03700
C1832       C  0.79616327  0.63207703  0.54601556    -0.10300
H1833       H  0.88682337  0.62589732  0.56708572     0.09300
H1834       H  0.84982746  0.31973478  0.46563979     0.06900
H1835       H  0.76605443  0.62493928  0.55915613     0.06700
C1836       C  0.74328903  0.65783339  0.42826806     0.03700
C1837       C  0.77280161  0.65105728  0.44885601    -0.12400
C1838       C  0.76773287  0.64419385  0.48646919     0.01200
C1839       C  0.72968117  0.64183858  0.50229546    -0.10900
C1840       C  0.69920813  0.64686463  0.48144646     0.03700
C1841       C  0.70650314  0.65533742  0.44457885    -0.10300
H1842       H  0.80129059  0.65465258  0.43499404     0.09300
H1843       H  0.72322720  0.63751446  0.53072334     0.06900
H1844       H  0.68475163  0.66249273  0.42897678     0.06700
C1845       C  0.72829960  0.43616903  0.56744205     0.03700
C1846       C  0.76399379  0.46645835  0.54675684    -0.12400
C1847       C  0.76683876  0.46053207  0.50942841     0.01200
C1848       C  0.73226859  0.42138523  0.49388973    -0.10900
C1849       C  0.69665386  0.39096992  0.51473057     0.03700
C1850       C  0.69491930  0.39862210  0.55141114    -0.10300
H1851       H  0.78754782  0.49597878  0.56027235     0.09300
H1852       H  0.73124638  0.41386606  0.46574625     0.06900
H1853       H  0.66620539  0.37646916  0.56705094     0.06700
C1854       C  0.84261832  0.52008343  0.42900564     0.03700
C1855       C  0.80650063  0.49032388  0.44960174    -0.12400
C1856       C  0.80439716  0.49558104  0.48715714     0.01200
C1857       C  0.83975169  0.53398953  0.50292784    -0.10900
C1858       C  0.87532978  0.56443770  0.48206427     0.03700
C1859       C  0.87668871  0.55698499  0.44527789    -0.10300
H1860       H  0.78199675  0.46160113  0.43575632     0.09300
H1861       H  0.84148363  0.54079705  0.53127114     0.06900
H1862       H  0.90556505  0.57882279  0.42967303     0.06700
C1863       C  0.96746251  0.53457704  0.56791931     0.03700
C1864       C  0.96414401  0.56844027  0.55177876    -0.12400
C1865       C  0.95533226  0.56709652  0.51499609     0.01200
C1866       C  0.95021236  0.53153959  0.49412413    -0.10900
C1867       C  0.95381776  0.49642602  0.50975911     0.03700
C1868       C  0.96162495  0.49871118  0.54723305    -0.10300
H1869       H  0.97090650  0.59718719  0.56744345     0.09300
H1870       H  0.94463772  0.53310160  0.46586102     0.06900
H1871       H  0.96661235  0.47458285  0.56089262     0.06700
C1872       C  0.93761393  0.42088586  0.42918883     0.03700
C1873       C  0.94346887  0.45667599  0.44995921    -0.12400
C1874       C  0.95140213  0.45894381  0.48741075     0.01200
C1875       C  0.95511060  0.42384433  0.50295615    -0.10900
C1876       C  0.95010372  0.38839289  0.48194358     0.03700
C1877       C  0.94118168  0.38711205  0.44518379    -0.10300
H1878       H  0.93828443  0.48070261  0.43635313     0.09300
H1879       H  0.62737606  0.42227642  0.53122176     0.06900
H1880       H  0.93441379  0.35841304  0.42944714     0.06700
C1881       C  0.95401820  0.60513624  0.49928823     0.02900
C1882       C  0.91339372  0.60382558  0.49770096     0.02900
C1883       C  0.91210896  0.64317159  0.49914563     0.02900
C1884       C  0.95144441  0.35026790  0.49742891     0.02900
C1885       C  0.99207126  0.35159517  0.49907497     0.02900
C1886       C  0.99336771  0.64575693  0.49732304     0.02900
C1887       C  0.83390843  0.53732130  0.76037484     0.03700
C1888       C  0.83221012  0.50045868  0.77656446    -0.12400
C1889       C  0.83876769  0.49973401  0.81380498     0.01200
C1890       C  0.84345691  0.53470783  0.83514373    -0.10900
C1891       C  0.84521504  0.57250334  0.81940453     0.03700
C1892       C  0.84390350  0.57406036  0.78164786    -0.10300
H1893       H  0.82467782  0.47186093  0.76042179     0.09300
H1894       H  0.84464870  0.53077772  0.86376459     0.06900
H1895       H  0.84695852  0.60260029  0.76828118     0.06700
C1896       C  0.85798475  0.64540782  0.90035399     0.03700
C1897       C  0.85477583  0.67974621  0.88438242    -0.12400
C1898       C  0.84594512  0.67878135  0.84739146     0.01200
C1899       C  0.84077879  0.64324305  0.82647001    -0.10900
C1900       C  0.84668300  0.60931932  0.84166145     0.03700
C1901       C  0.85473957  0.61127421  0.87881771    -0.10300
H1902       H  0.85949272  0.37424779  0.90092215     0.09300
H1903       H  0.83261750  0.64335070  0.79855762     0.06900
H1904       H  0.86191317  0.58803629  0.89147348     0.06700
C1905       C  0.72639143  0.63185582  0.76043126     0.03700
C1906       C  0.69003463  0.60491325  0.78199545    -0.12400
C1907       C  0.69210342  0.60772238  0.81976183     0.01200
C1908       C  0.72998147  0.64388707  0.83524866    -0.10900
C1909       C  0.76424093  0.34173894  0.81394878     0.03700
C1910       C  0.76327891  0.33443935  0.77669876    -0.10300
H1911       H  0.99472179  0.57941626  0.76877719     0.09300
H1912       H  0.73359102  0.31645223  0.86403672     0.06900
H1913       H  0.79178651  0.35549034  0.76045022     0.06700
C1914       C  0.95250700  0.54789832  0.90089067     0.03700
C1915       C  0.91785265  0.51067808  0.88482788    -0.12400
C1916       C  0.91884502  0.50275749  0.84786410     0.01200
C1917       C  0.95462205  0.53278717  0.82701814    -0.10900
C1918       C  0.65548899  0.57240470  0.84221307     0.03700
C1919       C  0.65374723  0.57842476  0.87943098    -0.10300
H1920       H  0.88971889  0.48827776  0.90087626     0.09300
H1921       H  0.95443531  0.52442285  0.79913208     0.06900
H1922       H  0.67744632  0.60858975  0.89215242     0.06700
C1923       C  0.71573484  0.40702955  0.90082383     0.03700
C1924       C  0.75309036  0.40977160  0.88484226    -0.12400
C1925       C  0.76114507  0.41878438  0.84788179     0.01200
C1926       C  0.73110048  0.42451603  0.82699180    -0.10900
C1927       C  0.69132711  0.41880055  0.84212763     0.03700
C1928       C  0.68513650  0.41078859  0.87927577    -0.10300
H1929       H  0.77550135  0.40412224  0.90094809     0.09300
H1930       H  0.73947788  0.43282350  0.79910836     0.06900
H1931       H  0.98810050  0.40388683  0.89185954     0.06700
C1932       C  0.96467847  0.42943586  0.76043319     0.03700
C1933       C  0.92929593  0.43094257  0.77640267    -0.12400
C1934       C  0.92234737  0.42531846  0.81373426     0.01200
C1935       C  0.95317150  0.42179290  0.83529751    -0.10900
C1936       C  0.98922308  0.41989817  0.81973415     0.03700
C1937       C  0.99180023  0.42026958  0.78197895    -0.10300
H1938       H  0.90790223  0.43777858  0.76002046     0.09300
H1939       H  0.94839092  0.42146012  0.86392578     0.06900
H1940       H  0.68401509  0.41716545  0.76876739     0.06700
C1941       C  0.84003329  0.46145101  0.82956505     0.02900
C1942       C  0.88098220  0.46316243  0.83175824     0.02900
C1943       C  0.88270731  0.42401437  0.82937582     0.02900
C1944       C  0.84349080  0.38307286  0.83171578     0.02900
C1945       C  0.80258839  0.38135291  0.82957329     0.02900
C1946       C  0.80085077  0.42057455  0.83186448     0.02900
O1947       O  0.64823320  0.61221280  0.06465338    -0.77900
C1948       C  0.96510708  0.39329345  0.06257192     0.83200
O1949       O  0.86921955  0.55604014  0.03250517    -0.79000
O1950       O  0.90678826  0.35116179  0.94725150    -0.80500
O1951       O  0.70495022  0.35694885  0.94721866    -0.80300
O1952       O  0.70861927  0.64915030  0.03242343    -0.78900
Zn1953     Zn  0.95354098  0.64452457  0.04650246     1.55700
O1954       O  0.01186156  0.40281393  0.95490552    -0.80300
Cd1955     Cd  0.67243692  0.64132018  0.98495735     1.59700
Cd1956     Cd  0.89745734  0.59178361  0.98486023     1.59600
O1957       O  0.98504322  0.58447677  0.95529919    -0.80300
O1958       O  0.95313813  0.64430962  0.99730136    -1.90800
Cd1959     Cd  0.95533272  0.36699440  0.98513397     1.59900
O1960       O  0.91306537  0.55912141  0.94688297    -0.80200
O1961       O  0.94809011  0.39545128  0.03281354    -0.78900
C1962       C  0.87158886  0.57519291  0.06231269     0.83600
C1963       C  0.68958080  0.63195421  0.06217379     0.83300
O1964       O  0.98472379  0.37156163  0.06501527    -0.77900
C1965       C  0.70128957  0.38972446  0.93744062     0.84100
O1966       O  0.89336270  0.61654279  0.06478241    -0.77900
C1967       C  0.94940331  0.56227002  0.93746652     0.84200
C1968       C  0.87518412  0.64838224  0.93700837     0.84600
O1969       O  0.86164706  0.61266620  0.95477843    -0.80400
O1970       O  0.69883211  0.47202829  0.59911468    -0.77900
C1971       C  0.99161698  0.54269431  0.60166209     0.83200
O1972       O  0.81217986  0.62257923  0.63037068    -0.79000
O1973       O  0.69273637  0.58724786  0.70929523    -0.80500
O1974       O  0.67599568  0.44077098  0.70921562    -0.80300
O1975       O  0.73877480  0.45141942  0.63060644    -0.78900
Zn1976     Zn  0.72949211  0.53255170  0.61711087     1.55700
O1977       O  0.97627853  0.48098317  0.71483186    -0.80300
Cd1978     Cd  0.73146842  0.47914943  0.67845184     1.59700
Cd1979     Cd  0.78410354  0.58757887  0.67824013     1.59600
O1980       O  0.78226910  0.49722143  0.71473216    -0.80300
O1981       O  0.73015638  0.53280100  0.66634386    -1.90800
Cd1982     Cd  0.67530628  0.53171644  0.67857325     1.59900
O1983       O  0.82235134  0.57046471  0.70915589    -0.80200
O1984       O  0.97276318  0.52425981  0.63112828    -0.78900
C1985       C  0.81091382  0.60340244  0.60085060     0.83600
C1986       C  0.71998144  0.45174837  0.60131350     0.83300
O1987       O  0.69967088  0.56328351  0.59911859    -0.77900
C1988       C  0.98230907  0.44970252  0.72495610     0.84100
O1989       O  0.78959130  0.56202036  0.59840110    -0.77900
C1990       C  0.81348609  0.53455020  0.72491307     0.84200
C1991       C  0.72881712  0.61426036  0.72486850     0.84600
O1992       O  0.76605974  0.62030910  0.71448294    -0.80400
C1993       C  0.71228097  0.97318234  0.09643981     0.03700
C1994       C  0.71855210  0.67649001  0.11654049    -0.12400
C1995       C  0.72879887  0.68031202  0.15350298     0.01200
C1996       C  0.73506000  0.98014888  0.16925443    -0.10900
C1997       C  0.72815944  0.94338161  0.14935859     0.03700
C1998       C  0.71711475  0.94029534  0.11288180    -0.10300
H1999       H  0.71087745  0.69924591  0.10359958     0.09300
H2000       H  0.74532572  0.98169937  0.19677485     0.06900
H2001       H  0.71003372  0.91108485  0.09776885     0.06700
C2002       C  0.73865216  0.75049055  0.23548594     0.05500
C2003       C  0.73916549  0.78690875  0.21973993    -0.12400
C2004       C  0.73312108  0.78822367  0.18248972     0.01200
C2005       C  0.73017829  0.75419192  0.16054948    -0.10900
C2006       C  0.72958992  0.71677968  0.17592144     0.03700
C2007       C  0.73043523  0.71465189  0.21373898    -0.10300
H2008       H  0.74553831  0.81488564  0.23627889     0.09300
H2009       H  0.72925783  0.75815767  0.13186201     0.06900
H2010       H  0.72792764  0.68626455  0.22694759     0.06700
C2011       C  0.95726803  0.74155399  0.09580114     0.03700
C2012       C  0.99033041  0.77911553  0.11232755    -0.12400
C2013       C  0.98715684  0.78709116  0.14878355     0.01200
C2014       C  0.95022704  0.75741382  0.16856304    -0.10900
C2015       C  0.91745110  0.71722337  0.15310052     0.03700
C2016       C  0.92141730  0.71074858  0.11617912    -0.10300
H2017       H  0.01965933  0.80113352  0.09728437     0.09300
H2018       H  0.94863489  0.76627582  0.19601868     0.06900
H2019       H  0.89865055  0.68034428  0.10321882     0.06700
C2020       C  0.84641631  0.99021745  0.23595124     0.03700
C2021       C  0.81007268  0.95425638  0.22019688    -0.12400
C2022       C  0.80881909  0.94695592  0.18294884     0.01200
C2023       C  0.84290527  0.97798040  0.16104053    -0.10900
C2024       C  0.88104322  0.68164654  0.17557214     0.03700
C2025       C  0.88316782  0.68490430  0.21337685    -0.10300
H2026       H  0.78209628  0.93258801  0.23672022     0.09300
H2027       H  0.83899740  0.97300682  0.13236246     0.06900
H2028       H  0.91166095  0.71068946  0.22654839     0.06700
C2029       C  0.94022684  0.85935727  0.23546852     0.03700
C2030       C  0.97583485  0.85816378  0.21978627    -0.12400
C2031       C  0.98329889  0.86405671  0.18253543     0.01200
C2032       C  0.95247462  0.86740580  0.16052425    -0.10900
C2033       C  0.91595043  0.86860675  0.17585826     0.03700
C2034       C  0.91319393  0.86833334  0.21366855    -0.10300
H2035       H  0.99712760  0.85140369  0.23638288     0.09300
H2036       H  0.95729800  0.86817601  0.13183177     0.06900
H2037       H  0.88774132  0.87167007  0.22680040     0.06700
C2038       C  0.85563248  0.88427200  0.09608385     0.03700
C2039       C  0.88648271  0.87932137  0.11647329    -0.12400
C2040       C  0.88021471  0.86926282  0.15345974     0.01200
C2041       C  0.84010015  0.86203308  0.16901198    -0.10900
C2042       C  0.81026181  0.86903748  0.14915686     0.03700
C2043       C  0.81813391  0.87990490  0.11264081    -0.10300
H2044       H  0.91682021  0.88679770  0.10347252     0.09300
H2045       H  0.83144847  0.85185578  0.19655965     0.06900
H2046       H  0.79605650  0.88707884  0.09754449     0.06700
C2047       C  0.72947092  0.90581421  0.16605239     0.02900
C2048       C  0.77011283  0.90712837  0.16799733     0.02900
C2049       C  0.77132405  0.86764620  0.16587549     0.02900
C2050       C  0.73199988  0.82700079  0.16762775     0.02900
C2051       C  0.69130854  0.82585484  0.16564833     0.02900
C2052       C  0.68993855  0.86514191  0.16781007     0.02900
O2053       O  0.87262761  0.72566883  0.39771259    -0.77900
C2054       C  0.85100982  0.83685544  0.39527028     0.83200
O2055       O  0.75970061  0.99803451  0.36578808    -0.79000
O2056       O  0.78956814  0.79065382  0.28149519    -0.80500
O2057       O  0.92902142  0.80823643  0.28142443    -0.80300
O2058       O  0.93269558  0.76477394  0.36537144    -0.78900
Zn2059     Zn  0.84148709  0.75508488  0.37954318     1.55700
O2060       O  0.89534259  0.84785927  0.28662364    -0.80300
Cd2061     Cd  0.89695528  0.75737086  0.31775756     1.59700
Cd2062     Cd  0.78823876  0.70059753  0.31769631     1.59600
O2063       O  0.88034975  0.70227452  0.28652526    -0.80300
O2064       O  0.84178860  0.75570169  0.33020897    -1.90800
Cd2065     Cd  0.84036309  0.80935999  0.31789288     1.59900
O2066       O  0.80708982  0.66903493  0.28089521    -0.80200
O2067       O  0.83338990  0.83788590  0.36550237    -0.78900
C2068       C  0.75999317  0.68256081  0.39477254     0.83600
C2069       C  0.91403039  0.74638387  0.39493443     0.83300
O2070       O  0.87070229  0.81520813  0.39841690    -0.77900
C2071       C  0.92259083  0.83917457  0.27101347     0.84100
O2072       O  0.78099336  0.72391383  0.39786171    -0.77900
C2073       C  0.84446954  0.67530592  0.27066946     0.84200
C2074       C  0.75853588  0.75326606  0.27119491     0.84600
O2075       O  0.74955717  0.71737548  0.28703678    -0.80400
C2076       C  0.82874206  0.96340778  0.56776133     0.03700
C2077       C  0.86594576  0.96676128  0.55163340    -0.12400
C2078       C  0.87261695  0.64179293  0.51461042     0.01200
C2079       C  0.84226454  0.64696176  0.49359008    -0.10900
C2080       C  0.80267459  0.64163499  0.50883788     0.03700
C2081       C  0.79879227  0.96933403  0.54706383    -0.10300
H2082       H  0.88789305  0.95994039  0.56729761     0.09300
H2083       H  0.85013469  0.65403208  0.46553883     0.06900
H2084       H  0.76972795  0.96441866  0.56075887     0.06700
C2085       C  0.74446085  0.99263939  0.42903467     0.03700
C2086       C  0.77462556  0.98705632  0.44974259    -0.12400
C2087       C  0.76909287  0.97920087  0.48721395     0.01200
C2088       C  0.73025654  0.97531812  0.50282133    -0.10900
C2089       C  0.69968939  0.98016539  0.48189689     0.03700
C2090       C  0.70712395  0.98896619  0.44511686    -0.10300
H2091       H  0.80384618  0.99233265  0.43609200     0.09300
H2092       H  0.72312619  0.96972222  0.53108613     0.06900
H2093       H  0.68503798  0.99557163  0.42943230     0.06700
C2094       C  0.72899860  0.76986331  0.56730984     0.03700
C2095       C  0.76459387  0.80005938  0.54651025    -0.12400
C2096       C  0.76718084  0.79414505  0.50916292     0.01200
C2097       C  0.73245232  0.75499911  0.49368172    -0.10900
C2098       C  0.69687170  0.72457833  0.51460094     0.03700
C2099       C  0.69537441  0.73236497  0.55132336    -0.10300
H2100       H  0.78827418  0.82955879  0.55999449     0.09300
H2101       H  0.73126198  0.74750745  0.46551736     0.06900
H2102       H  0.66668926  0.71034784  0.56704384     0.06700
C2103       C  0.84297569  0.85345367  0.42874297     0.03700
C2104       C  0.80685790  0.82377933  0.44936456    -0.12400
C2105       C  0.80469442  0.82921445  0.48685431     0.01200
C2106       C  0.83999866  0.86775097  0.50253212    -0.10900
C2107       C  0.87561374  0.89809331  0.48164944     0.03700
C2108       C  0.87700923  0.89050420  0.44488749    -0.10300
H2109       H  0.78244658  0.79489820  0.43562075     0.09300
H2110       H  0.84170349  0.87474196  0.53083704     0.06900
H2111       H  0.90590743  0.91224564  0.42926404     0.06700
C2112       C  0.96889399  0.86839391  0.56727288     0.03700
C2113       C  0.96481036  0.90186647  0.55129318    -0.12400
C2114       C  0.95546545  0.90029338  0.51459718     0.01200
C2115       C  0.95017127  0.86470155  0.49368337    -0.10900
C2116       C  0.95467972  0.83005804  0.50913713     0.03700
C2117       C  0.96347985  0.83278172  0.54647477    -0.10300
H2118       H  0.97146452  0.93056490  0.56698244     0.09300
H2119       H  0.94370537  0.86580797  0.46554087     0.06900
H2120       H  0.96954493  0.80924669  0.55991563     0.06700
C2121       C  0.93846998  0.75446611  0.42856934     0.03700
C2122       C  0.94488530  0.79058769  0.44919102    -0.12400
C2123       C  0.95215403  0.79258354  0.48676194     0.01200
C2124       C  0.95509876  0.75718026  0.50249370    -0.10900
C2125       C  0.95012773  0.72173449  0.48160486     0.03700
C2126       C  0.94139766  0.72041431  0.44479660    -0.10300
H2127       H  0.94071543  0.81514674  0.43537656     0.09300
H2128       H  0.62665099  0.75529384  0.53085079     0.06900
H2129       H  0.93442092  0.69157359  0.42917663     0.06700
C2130       C  0.95428513  0.93840562  0.49898919     0.02900
C2131       C  0.91376434  0.93730886  0.49736006     0.02900
C2132       C  0.91268720  0.97674066  0.49913636     0.02900
C2133       C  0.95144691  0.68376800  0.49736066     0.02900
C2134       C  0.99211722  0.68510984  0.49898013     0.02900
C2135       C  0.99372400  0.97893966  0.49755586     0.02900
C2136       C  0.83367146  0.87091287  0.76046406     0.03700
C2137       C  0.83183657  0.83389562  0.77641973    -0.12400
C2138       C  0.83779719  0.83265421  0.81368422     0.01200
C2139       C  0.84198138  0.86726097  0.83528188    -0.10900
C2140       C  0.84406038  0.90530613  0.81975710     0.03700
C2141       C  0.84325430  0.90734184  0.78199115    -0.10300
H2142       H  0.82470592  0.80557681  0.76004642     0.09300
H2143       H  0.84275083  0.86299093  0.86390382     0.06900
H2144       H  0.84650076  0.93603451  0.76876499     0.06700
C2145       C  0.85771533  0.97832978  0.90089474     0.03700
C2146       C  0.85488500  0.01290602  0.88497435    -0.12400
C2147       C  0.84589298  0.01199230  0.84802967     0.01200
C2148       C  0.84016406  0.97625926  0.82710191    -0.10900
C2149       C  0.84572238  0.94208885  0.84219603     0.03700
C2150       C  0.85388629  0.94393926  0.87933669    -0.10300
H2151       H  0.85995948  0.70762380  0.90051797     0.09300
H2152       H  0.83184535  0.97640101  0.79924167     0.06900
H2153       H  0.86072380  0.92041050  0.89191092     0.06700
C2154       C  0.72668277  0.96558280  0.76063621     0.03700
C2155       C  0.69012631  0.93864941  0.78198791    -0.12400
C2156       C  0.69184012  0.94134070  0.81976087     0.01200
C2157       C  0.72969414  0.97743607  0.83545586    -0.10900
C2158       C  0.76447820  0.67443252  0.81363343     0.03700
C2159       C  0.76332776  0.66717713  0.77636445    -0.10300
H2160       H  0.99494001  0.91322363  0.76857967     0.09300
H2161       H  0.73422455  0.64901595  0.86385985     0.06900
H2162       H  0.79162144  0.68843455  0.75998520     0.06700
C2163       C  0.95201484  0.88085922  0.90064413     0.03700
C2164       C  0.91725403  0.84387237  0.88444969    -0.12400
C2165       C  0.91815060  0.83631214  0.84741928     0.01200
C2166       C  0.95381845  0.86659153  0.82658602    -0.10900
C2167       C  0.65494536  0.90591484  0.84199123     0.03700
C2168       C  0.65334305  0.91144257  0.87929594    -0.10300
H2169       H  0.88916196  0.82132498  0.90047137     0.09300
H2170       H  0.95340976  0.85852925  0.79859386     0.06900
H2171       H  0.67726723  0.94130408  0.89223342     0.06700
C2172       C  0.71570104  0.73960771  0.90052676     0.03700
C2173       C  0.75265933  0.74182886  0.88427442    -0.12400
C2174       C  0.76066871  0.75119082  0.84738726     0.01200
C2175       C  0.73087156  0.75759262  0.82678677    -0.10900
C2176       C  0.69128405  0.75213386  0.84211142     0.03700
C2177       C  0.68527822  0.74408615  0.87928553    -0.10300
H2178       H  0.77493606  0.73575247  0.90016741     0.09300
H2179       H  0.73934924  0.76628841  0.79897413     0.06900
H2180       H  0.98856597  0.73781125  0.89211923     0.06700
C2181       C  0.96517681  0.76390286  0.76054850     0.03700
C2182       C  0.92994588  0.76563359  0.77653998    -0.12400
C2183       C  0.92263018  0.75938567  0.81379487     0.01200
C2184       C  0.95316433  0.75533813  0.83538042    -0.10900
C2185       C  0.98929542  0.75360207  0.81980754     0.03700
C2186       C  0.99200479  0.75429774  0.78204257    -0.10300
H2187       H  0.90876284  0.77280957  0.76019938     0.09300
H2188       H  0.94805832  0.75435332  0.86400240     0.06900
H2189       H  0.68404403  0.75097399  0.76876402     0.06700
C2190       C  0.83938951  0.79439589  0.82909864     0.02900
C2191       C  0.88051392  0.79653087  0.83135690     0.02900
C2192       C  0.88269329  0.75761777  0.82921819     0.02900
C2193       C  0.84371209  0.71645446  0.83140131     0.02900
C2194       C  0.80262600  0.71431357  0.82910389     0.02900
C2195       C  0.80044568  0.75331439  0.83126479     0.02900
O2196       O  0.64701345  0.94475673  0.06490093    -0.77900
C2197       C  0.96611150  0.72650260  0.06187441     0.83200
O2198       O  0.86889221  0.88874358  0.03249046    -0.79000
O2199       O  0.90833225  0.68466264  0.94654055    -0.80500
O2200       O  0.70464875  0.68911030  0.94659623    -0.80300
O2201       O  0.70764624  0.98116835  0.03275850    -0.78900
Zn2202     Zn  0.95260615  0.97718800  0.04663237     1.55700
O2203       O  0.01304820  0.73602940  0.95513535    -0.80300
Cd2204     Cd  0.67218724  0.97396560  0.98505523     1.59700
Cd2205     Cd  0.89733181  0.92454488  0.98496499     1.59600
O2206       O  0.98468585  0.91725660  0.95507822    -0.80300
O2207       O  0.95299126  0.97715016  0.99742884    -1.90800
Cd2208     Cd  0.95621711  0.69996432  0.98477065     1.59900
O2209       O  0.91267099  0.89182999  0.94685334    -0.80200
O2210       O  0.94872727  0.72831807  0.03222774    -0.78900
C2211       C  0.87063505  0.90802521  0.06207134     0.83600
C2212       C  0.68837428  0.96427388  0.06250700     0.83300
O2213       O  0.98603714  0.70505665  0.06421586    -0.77900
C2214       C  0.70157278  0.72232326  0.93715973     0.84100
O2215       O  0.89204523  0.94940358  0.06428029    -0.77900
C2216       C  0.94899124  0.89504077  0.93730913     0.84200
C2217       C  0.87503623  0.98125235  0.93748625     0.84600
O2218       O  0.86147892  0.94551573  0.95521003    -0.80400
O2219       O  0.70086286  0.80711698  0.59857515    -0.77900
C2220       C  0.99295054  0.87666873  0.60110411     0.83200
O2221       O  0.81291613  0.95778301  0.63096426    -0.79000
O2222       O  0.69330469  0.92151387  0.70908838    -0.80500
O2223       O  0.67629820  0.77479695  0.70925068    -0.80300
O2224       O  0.73902776  0.78482904  0.63062573    -0.78900
Zn2225     Zn  0.73122823  0.86739024  0.61700451     1.55700
O2226       O  0.97694584  0.81534537  0.71477236    -0.80300
Cd2227     Cd  0.73176560  0.81297525  0.67832678     1.59700
Cd2228     Cd  0.78465962  0.92180802  0.67843084     1.59600
O2229       O  0.78249421  0.83116479  0.71456991    -0.80300
O2230       O  0.73091637  0.86694333  0.66624408    -1.90800
Cd2231     Cd  0.67606748  0.86591947  0.67833796     1.59900
O2232       O  0.82275351  0.90447271  0.70923753    -0.80200
O2233       O  0.97397107  0.85821449  0.63054429    -0.78900
C2234       C  0.81252978  0.93906207  0.60143106     0.83600
C2235       C  0.72097009  0.78584562  0.60111084     0.83300
O2236       O  0.70103371  0.89761411  0.59874149    -0.77900
C2237       C  0.98281114  0.78399796  0.72500578     0.84100
O2238       O  0.79171005  0.89767457  0.59874973    -0.77900
C2239       C  0.81366794  0.86844007  0.72490063     0.84200
C2240       C  0.72925918  0.94817717  0.72502436     0.84600
O2241       O  0.76649966  0.95405792  0.71489457    -0.80400
loop_ 
_geom_bond_atom_site_label_1 
_geom_bond_atom_site_label_2 
_geom_bond_distance 
_geom_bond_site_symmetry_2 
_ccdc_geom_bond_type 
C1            C6   1.392       .  A
C1          C251   1.403       .  A
C1          C220   1.460       .  S
C2            C3   1.409       .  A
C2          C499   1.403   1_545  A
C2            H7   1.077       .  S
C3          C502   1.424   1_545  A
C3           C14   1.517       .  S
C4            C5   1.402       .  A
C4          C252   1.425       .  A
C4            H8   1.077       .  S
C5            C6   1.400       .  A
C5           C55   1.483       .  S
C6            H9   1.085       .  S
C10          C11   1.400       .  A
C10          C15   1.400       .  A
C10          C82   1.481       .  S
C11          C12   1.405       .  A
C11          H16   1.084       .  S
C12          C13   1.409       .  A
C12          C58   1.490       .  S
C13          C14   1.425       .  A
C13          H17   1.078       .  S
C14          C15   1.409       .  A
C15          H18   1.076       .  S
C19          C20   1.391       .  A
C19          C24   1.404       .  A
C19         C205   1.461       .  S
C20          C21   1.399       .  A
C20          H25   1.085       .  S
C21          C22   1.402       .  A
C21         C806   1.481       .  S
C22          C23   1.424       .  A
C22          H26   1.077       .  S
C23          C24   1.411       .  A
C23          C32   1.518       .  S
C24          H27   1.077       .  S
C28          C29   1.400       .  A
C28         C282   1.401       .  A
C28         C330   1.481       .  S
C29          C30   1.406       .  A
C29          H34   1.084       .  S
C30          C31   1.409       .  A
C30          C56   1.491       .  S
C31         C281   1.426       .  A
C31          H35   1.078       .  S
C32          C33   1.410       .  A
C32         C529   1.424   1_545  A
C33         C526   1.401   1_545  A
C33          H36   1.076       .  S
C37          C38   1.400       .  A
C37          C42   1.400       .  A
C37          C79   1.481       .  S
C38          C39   1.406       .  A
C38          H43   1.084       .  S
C39          C40   1.409       .  A
C39         C807   1.490       .  S
C40          C41   1.425       .  A
C40          H44   1.078       .  S
C41          C42   1.409       .  A
C41          C48   1.518       .  S
C42          H45   1.076       .  S
C46          C47   1.404       .  A
C46          C51   1.392       .  A
C46         C219   1.461       .  S
C47          C48   1.410       .  A
C47          H52   1.077       .  S
C48          C49   1.425       .  A
C49          C50   1.401       .  A
C49          H53   1.077       .  S
C50          C51   1.400       .  A
C50          C57   1.482       .  S
C51          H54   1.085       .  S
C55          C56   1.409       .  A
C55          C60   1.413       .  A
C56          C57   1.413       .  A
C57          C58   1.408       .  A
C58          C59   1.412       .  A
C59          C60   1.408       .  A
C59        C1515   1.481   1_455  S
C60        C1533   1.490   1_455  S
O61          C77   1.264       .  A
O61         Zn67   1.961       .  S
C62         C111   1.463       .  S
C62          O78   1.264       .  A
C62          O75   1.278       .  A
O63         C325   1.277       .  A
O63        Cd319   2.107       .  S
O64          C82   1.277       .  A
O64         Cd73   2.068       .  S
O65          C79   1.277       .  A
O65         Cd69   2.069       .  S
O66          C77   1.277       .  A
O66         Cd69   2.108       .  S
Zn67         O78   1.963       .  S
Zn67         O80   1.960       .  S
Zn67         O72   1.834       .  S
O68          C79   1.281       .  A
O68         Cd73   2.075       .  S
Cd69         O71   2.074       .  S
Cd69         O72   1.964       .  S
Cd70         O74   2.067       .  S
Cd70         O83   2.074       .  S
Cd70        O561   2.106   1_545  S
Cd70         O72   1.965       .  S
O71          C81   1.281       .  A
O72         Cd73   1.964       .  S
Cd73         O75   2.113       .  S
O74          C81   1.277       .  A
C76         C591   1.460   1_545  S
C76          O80   1.264       .  A
C76         O561   1.277   1_545  A
C77         C129   1.461       .  S
C81         C526   1.480   1_545  S
C82          O83   1.281       .  A
C84          C85   1.389       .  A
C84          C89   1.401       .  A
C84         C242   1.461       .  S
C85         C335   1.398       .  A
C85          H90   1.085       .  S
C86          C87   1.404       .  A
C86         C583   1.398       .  A
C86         C638   1.480       .  S
C87          C88   1.426       .  A
C87          H91   1.076       .  S
C88         C587   1.415       .  A
C88         C593   1.523       .  S
C89         C337   1.415       .  A
C89          H92   1.075       .  S
C93          C94   1.402       .  A
C93          C98   1.388       .  A
C93         C325   1.461       .  S
C94          C95   1.415       .  A
C94          H99   1.075       .  S
C95          C96   1.426       .  A
C95         C337   1.523       .  S
C96          C97   1.404       .  A
C96         H100   1.076       .  S
C97          C98   1.397       .  A
C97        C1637   1.479   1_455  S
C98         H101   1.085       .  S
C102        C103   1.402       .  A
C102        C107   1.389       .  A
C102        C243   1.462       .  S
C103        C104   1.415       .  A
C103        H108   1.075       .  S
C104        C105   1.425       .  A
C104        C113   1.523       .  S
C105        C106   1.404       .  A
C105        H109   1.075       .  S
C106        C107   1.398       .  A
C106       C1636   1.480   1_455  S
C107        H110   1.085       .  S
C111        C112   1.402       .  A
C111        C116   1.390       .  A
C112        C113   1.416       .  A
C112        H117   1.076       .  S
C113        C114   1.425       .  A
C114        C115   1.403       .  A
C114        H118   1.076       .  S
C115        C116   1.398       .  A
C115        C139   1.479       .  S
C116        H119   1.085       .  S
C120        C121   1.389       .  A
C120        C125   1.401       .  A
C120        C228   1.462       .  S
C121        C122   1.398       .  A
C121        H126   1.085       .  S
C122        C123   1.404       .  A
C122        C138   1.480       .  S
C123        C124   1.426       .  A
C123        H127   1.076       .  S
C124        C125   1.415       .  A
C124        C131   1.523       .  S
C125        H128   1.075       .  S
C129        C130   1.401       .  A
C129        C134   1.389       .  A
C130        C131   1.415       .  A
C130        H135   1.076       .  S
C131        C132   1.426       .  A
C132        C133   1.404       .  A
C132        H883   1.075       .  S
C133        C134   1.398       .  A
C133        C141   1.480       .  S
C134        H137   1.085       .  S
H136       C1626   1.075       .  S
C138        C139   1.407       .  A
C138        C143   1.406       .  A
C139        C140   1.408       .  A
C140        C390   1.407       .  A
C140        C335   1.480       .  S
C141        C142   1.406       .  A
C141        C638   1.407   1_545  A
C142        C641   1.407   1_545  A
C142        C853   1.480       .  S
C143        C391   1.407       .  A
C143        C844   1.479       .  S
C144        C145   1.404       .  A
C144        C149   1.401       .  A
C144        C247   1.481       .  S
C145        C146   1.407       .  A
C145        H150   1.084       .  S
C146        C147   1.404       .  A
C146        C198   1.491       .  S
C147        C148   1.425       .  A
C147        H151   1.077       .  S
C148        C149   1.407       .  A
C148        C157   1.517       .  S
C149        H152   1.076       .  S
C153        C154   1.400       .  A
C153        C158   1.401       .  A
C153        C225   1.475       .  S
C154        C155   1.406       .  A
C154        H408   1.084       .  S
C155        C156   1.404       .  A
C155        C450   1.489       .  S
C156        C157   1.425       .  A
C156        H160   1.077       .  S
C157        C158   1.406       .  A
C158        H161   1.076       .  S
H159        C652   1.084       .  S
C162        C163   1.401       .  A
C162        C416   1.403       .  A
C162        C248   1.481       .  S
C163        C164   1.407       .  A
C163       H1662   1.076   1_455  S
C164        C165   1.425       .  A
C164        C175   1.515   1_455  S
C165        C415   1.402       .  A
C165        H418   1.077       .  S
C166        C167   1.406       .  A
C166        C663   1.404   1_545  A
C166        C202   1.491       .  S
C167        C660   1.403   1_545  A
C167        H170   1.084       .  S
H168        C910   1.076       .  S
H169        C663   1.077       .  S
C171        C172   1.400       .  A
C171        C923   1.399       .  A
C171        C224   1.473       .  S
C172        C173   1.407       .  A
C172        H177   1.084       .  S
C173        C174   1.404       .  A
C173        C199   1.489       .  S
C174        C922   1.425       .  A
C174        H178   1.077       .  S
C175        C176   1.405       .  A
C175       C1668   1.425       .  A
C176       C1665   1.399       .  A
C176        H179   1.076   1_655  S
C180        C181   1.400       .  A
C180        C185   1.401       .  A
C180        C222   1.474       .  S
C181        C182   1.406       .  A
C181        H186   1.084       .  S
C182        C183   1.403       .  A
C182        C203   1.488       .  S
C183        C184   1.425       .  A
C183        H187   1.077       .  S
C184        C185   1.406       .  A
C184       C1687   1.516   1_455  S
C185       H1682   1.076   1_455  S
H188        C932   1.076       .  S
C189        C190   1.403       .  A
C189        C194   1.400       .  A
C189        C245   1.481       .  S
C190        C191   1.406       .  A
C190        H195   1.084       .  S
C191        C192   1.403       .  A
C191        C200   1.490       .  S
C192        C193   1.425       .  A
C192        H196   1.077       .  S
C193        C194   1.407       .  A
C193        C931   1.516       .  S
C194        H944   1.076       .  S
H197       C1688   1.076   1_455  S
C198        C199   1.413       .  A
C198        C203   1.412       .  A
C199        C200   1.411       .  A
C200        C201   1.414       .  A
C201        C202   1.411       .  A
C201        C653   1.489       .  S
C202        C203   1.413       .  A
O204        C220   1.263   1_655  A
O204      Zn1704   1.958       .  S
C205        O221   1.262       .  A
C205        O218   1.277       .  A
O206        C219   1.277       .  A
O206       Cd213   2.108   1_554  S
O207        C723   1.275   1_545  A
O207       Cd216   2.059       .  S
O208        C222   1.275       .  A
O208       Cd710   2.061   1_545  S
O209        C220   1.277       .  A
O209       Cd212   2.108   1_554  S
Zn210       O223   1.960       .  S
Zn210       O951   1.958       .  S
Zn210       O470   1.956       .  S
Zn210       O215   1.830   1_554  S
O211        C969   1.281       .  A
O211       Cd216   2.072       .  S
Cd212       O457   2.059       .  S
Cd212      O1708   2.071   1_455  S
Cd212      O1709   1.962   1_455  S
Cd213       O217   2.058       .  S
Cd213       O226   2.071       .  S
Cd213       O215   1.960       .  S
O214        C224   1.281       .  A
O214       Cd959   2.071       .  S
O215       Cd959   1.962       .  S
O215       Cd465   1.961       .  S
Cd216       O218   2.111   1_556  S
Cd216       O713   1.960   1_545  S
O217        C224   1.274       .  A
C219        O223   1.263       .  A
O221       Zn708   1.957   1_545  S
C222       O1705   1.281       .  A
C225        O226   1.281       .  A
C225        O456   1.275       .  A
O227        C243   1.264       .  A
O227       Zn233   1.960       .  S
C228        O241   1.277       .  A
C228        O991   1.264       .  A
O229        C242   1.277       .  A
O229       Cd236   2.109       .  S
O230        C248   1.281       .  A
O230       Cd239   2.074       .  S
O231       C1739   1.281   1_455  A
O231       Cd235   2.076       .  S
O232        C243   1.277       .  A
O232       Cd235   2.109       .  S
Zn233       O244   1.961       .  S
Zn233       O246   1.960       .  S
Zn233       O238   1.833       .  S
O234        C245   1.276       .  A
O234       Cd986   2.067       .  S
Cd235       O237   2.066       .  S
Cd235       O238   1.962       .  S
Cd236       O240   2.077       .  S
Cd236       O249   2.068       .  S
Cd236       O238   1.964       .  S
O237        C247   1.276       .  A
O238       Cd239   1.963       .  S
Cd239      O1728   2.067   1_455  S
Cd239      O1735   2.110   1_455  S
O240        C247   1.282       .  A
O241       Cd986   2.110       .  S
C242        O246   1.264       .  A
O244       C1722   1.264   1_455  A
C245        O978   1.281       .  A
C248        O249   1.277       .  A
C250        C500   1.404       .  A
C250        C255   1.392       .  A
C250        C469   1.462       .  S
C251        C252   1.409       .  A
C251        H256   1.077       .  S
C252        C263   1.518       .  S
C253        C501   1.425       .  A
C253        C254   1.402       .  A
C253        H257   1.077       .  S
C254        C255   1.400       .  A
C254        C304   1.483       .  S
C255        H258   1.085       .  S
C259        C260   1.399       .  A
C259        C264   1.400       .  A
C259        C331   1.480       .  S
C260        C261   1.405       .  A
C260        H265   1.084       .  S
C261        C262   1.408       .  A
C261        C307   1.489       .  S
C262        C263   1.425       .  A
C262        H266   1.078       .  S
C263        C264   1.409       .  A
C264        H267   1.075       .  S
C268        C269   1.391       .  A
C268        C273   1.404       .  A
C268        C454   1.461       .  S
C269        C270   1.400       .  A
C269        H274   1.085       .  S
C270        C271   1.403       .  A
C270       C1055   1.484       .  S
C271        C272   1.427       .  A
C271        H275   1.077       .  S
C272        C273   1.410       .  A
C272        C281   1.520       .  S
C273        H276   1.077       .  S
C277        C278   1.400       .  A
C277        C531   1.399       .  A
C277        C579   1.482       .  S
C278        C279   1.406       .  A
C278        H283   1.084       .  S
C279        C280   1.408       .  A
C279        C305   1.490       .  S
C280        C530   1.424       .  A
C280        H284   1.078       .  S
C281        C282   1.409       .  A
C282        H285   1.075       .  S
C286        C287   1.401       .  A
C286        C291   1.400       .  A
C286        C328   1.482       .  S
C287        C288   1.406       .  A
C287        H292   1.084       .  S
C288        C289   1.408       .  A
C288       C1056   1.490       .  S
C289        C290   1.424       .  A
C289        H293   1.078       .  S
C290        C291   1.409       .  A
C290        C297   1.518       .  S
C291        H294   1.076       .  S
C295        C296   1.404       .  A
C295        C300   1.391       .  A
C295        C468   1.461       .  S
C296        C297   1.410       .  A
C296        H301   1.077       .  S
C297        C298   1.425       .  A
C298        C299   1.402       .  A
C298        H302   1.077       .  S
C299        C300   1.399       .  A
C299        C306   1.482       .  S
C300        H303   1.085       .  S
C304        C305   1.408       .  A
C304        C309   1.413       .  A
C305        C306   1.412       .  A
C306        C307   1.409       .  A
C307        C308   1.413       .  A
C308        C309   1.409       .  A
C308       C1764   1.484   1_455  S
C309       C1782   1.490   1_455  S
O310        C326   1.264       .  A
O310       Zn316   1.959       .  S
C311        C360   1.462       .  S
C311        O327   1.264       .  A
C311        O324   1.278       .  A
O312        C574   1.278       .  A
O312       Cd568   2.112       .  S
O313        C331   1.277       .  A
O313       Cd322   2.067       .  S
O314        C328   1.277       .  A
O314       Cd318   2.069       .  S
O315        C326   1.278       .  A
O315       Cd318   2.109       .  S
Zn316       O327   1.961       .  S
Zn316       O329   1.961       .  S
Zn316       O321   1.834       .  S
O317        C328   1.281       .  A
O317       Cd322   2.077       .  S
Cd318       O320   2.074       .  S
Cd318       O321   1.964       .  S
Cd319       O323   2.069       .  S
Cd319       O332   2.072       .  S
Cd319       O321   1.965       .  S
O320        C330   1.281       .  A
O321       Cd322   1.965       .  S
Cd322       O324   2.113       .  S
O323        C330   1.277       .  A
C325        O329   1.264       .  A
C326        C378   1.461       .  S
C331        O332   1.281       .  A
C333        C334   1.388       .  A
C333        C338   1.401       .  A
C333        C491   1.460       .  S
C334        C584   1.398       .  A
C334        H339   1.085       .  S
C335        C336   1.405       .  A
C336        C337   1.426       .  A
C336        H340   1.076       .  S
C338        C586   1.414       .  A
C338        H341   1.075       .  S
C342        C343   1.402       .  A
C342        C347   1.391       .  A
C342        C574   1.463       .  S
C343        C344   1.415       .  A
C343        H348   1.076       .  S
C344        C345   1.425       .  A
C344        C586   1.523       .  S
C345        C346   1.403       .  A
C345        H349   1.076       .  S
C346        C347   1.399       .  A
C346       C1886   1.481   1_455  S
C347        H350   1.085       .  S
C351        C352   1.401       .  A
C351        C356   1.388       .  A
C351        C492   1.460       .  S
C352        C353   1.414       .  A
C352        H357   1.075       .  S
C353        C354   1.426       .  A
C353        C362   1.523       .  S
C354        C355   1.404       .  A
C354        H358   1.075       .  S
C355        C356   1.397       .  A
C355       C1885   1.479   1_455  S
C356        H359   1.085   1_455  S
C360        C361   1.402       .  A
C360        C365   1.389       .  A
C361        C362   1.415       .  A
C361        H366   1.076       .  S
C362        C363   1.426       .  A
C363        C364   1.405       .  A
C363        H367   1.076       .  S
C364        C365   1.398       .  A
C364        C388   1.481       .  S
C365        H368   1.085       .  S
C369        C370   1.389       .  A
C369        C374   1.402       .  A
C369        C477   1.461       .  S
C370        C371   1.398       .  A
C370        H375   1.085       .  S
C371        C372   1.404       .  A
C371        C387   1.481       .  S
C372        C373   1.426       .  A
C372        H376   1.075       .  S
C373        C374   1.415       .  A
C373        C380   1.524       .  S
C374        H377   1.076       .  S
C378        C379   1.401       .  A
C378        C383   1.389       .  A
C379        C380   1.415       .  A
C379        H384   1.075       .  S
C380        C381   1.426       .  A
C381        C382   1.406       .  A
C381       H1132   1.076       .  S
C382        C383   1.398       .  A
C382        C390   1.481       .  S
C383        H386   1.085       .  S
H385       C1875   1.076       .  S
C387        C388   1.407       .  A
C387        C392   1.408       .  A
C388        C389   1.407       .  A
C389        C639   1.407       .  A
C389        C584   1.481       .  S
C390        C391   1.407       .  A
C391       C1102   1.479       .  S
C392        C640   1.407       .  A
C392       C1093   1.481       .  S
C393        C394   1.403       .  A
C393        C398   1.401       .  A
C393        C496   1.481       .  S
C394        C395   1.406       .  A
C394        H399   1.084       .  S
C395        C396   1.402       .  A
C395        C447   1.489       .  S
C396        C397   1.425       .  A
C396        H400   1.077       .  S
C397        C398   1.407       .  A
C397        C406   1.515       .  S
C398        H401   1.076       .  S
C402        C403   1.400       .  A
C402        C407   1.399       .  A
C402        C474   1.473       .  S
C403        C404   1.407       .  A
C403        H657   1.084       .  S
C404        C405   1.404       .  A
C404        C699   1.489       .  S
C405        C406   1.425       .  A
C405        H409   1.077       .  S
C406        C407   1.405       .  A
C407        H410   1.076       .  S
C411        C412   1.401       .  A
C411        C665   1.402       .  A
C411        C497   1.480       .  S
C412        C413   1.407       .  A
C412       H1911   1.075   1_455  S
C413        C414   1.424       .  A
C413        C424   1.515   1_455  S
C414        C664   1.403       .  A
C414        H667   1.077       .  S
C415        C416   1.406       .  A
C415        C451   1.489       .  S
C416        H419   1.084       .  S
H417       C1159   1.075       .  S
C420        C421   1.400       .  A
C420       C1172   1.400       .  A
C420        C473   1.474       .  S
C421        C422   1.406       .  A
C421        H426   1.084       .  S
C422        C423   1.403       .  A
C422        C448   1.488       .  S
C423       C1171   1.425       .  A
C423        H427   1.077       .  S
C424       C1917   1.425       .  A
C424        C425   1.406       .  A
C425       C1914   1.400       .  A
C425        H428   1.077   1_655  S
C429        C430   1.400       .  A
C429        C434   1.399       .  A
C429        C471   1.474       .  S
C430        C431   1.407       .  A
C430        H435   1.084       .  S
C431        C432   1.404       .  A
C431        C452   1.490       .  S
C432        C433   1.425       .  A
C432        H436   1.077       .  S
C433        C434   1.405       .  A
C433       C1936   1.515   1_455  S
C434       H1931   1.076   1_455  S
H437       C1181   1.076       .  S
C438        C439   1.403       .  A
C438        C443   1.401       .  A
C438        C494   1.480       .  S
C439        C440   1.406       .  A
C439        H444   1.084       .  S
C440        C441   1.402       .  A
C440        C449   1.489       .  S
C441        C442   1.425       .  A
C441        H445   1.077       .  S
C442        C443   1.406       .  A
C442       C1180   1.515       .  S
C443       H1193   1.076       .  S
H446       C1937   1.076   1_455  S
C447        C448   1.413       .  A
C447        C452   1.411       .  A
C448        C449   1.410       .  A
C449        C450   1.413       .  A
C450        C451   1.411       .  A
C451        C452   1.413       .  A
O453        C469   1.263   1_655  A
O453      Zn1953   1.958       .  S
C454        O470   1.263       .  A
C454        O467   1.278       .  A
O455        C468   1.278       .  A
O455       Cd462   2.111   1_554  S
O456       Cd465   2.063       .  S
O457        C471   1.275       .  A
O458        C469   1.278       .  A
O458       Cd461   2.111   1_554  S
Zn459      O1200   1.959       .  S
Zn459       O719   1.959       .  S
Zn459       O472   1.955       .  S
Zn459       O464   1.829   1_554  S
O460       C1218   1.281       .  A
O460       Cd465   2.072       .  S
Cd461       O706   2.058       .  S
Cd461      O1957   2.070   1_455  S
Cd461      O1958   1.959   1_455  S
Cd462       O466   2.060       .  S
Cd462       O475   2.073       .  S
Cd462       O464   1.960       .  S
O463        C473   1.281       .  A
O463      Cd1208   2.070       .  S
O464      Cd1208   1.959       .  S
O464       Cd714   1.961       .  S
Cd465       O467   2.113   1_556  S
O466        C473   1.275       .  A
C468        O472   1.263       .  A
C471       O1954   1.281       .  A
C474        O705   1.274       .  A
C474        O475   1.281       .  A
O476        C492   1.264       .  A
O476       Zn482   1.961       .  S
C477       O1240   1.263       .  A
C477        O490   1.277       .  A
O478        C491   1.277       .  A
O478       Cd485   2.107       .  S
O479        C497   1.281       .  A
O479       Cd488   2.073       .  S
O480       C1988   1.281   1_455  A
O480       Cd484   2.074       .  S
O481        C492   1.277       .  A
O481       Cd484   2.105       .  S
Zn482       O493   1.961       .  S
Zn482       O495   1.957       .  S
Zn482       O487   1.831       .  S
O483        C494   1.276       .  A
O483      Cd1235   2.065       .  S
Cd484       O486   2.068       .  S
Cd484       O487   1.962       .  S
Cd485       O489   2.074       .  S
Cd485       O498   2.067       .  S
Cd485       O487   1.962       .  S
O486        C496   1.277       .  A
O487       Cd488   1.963       .  S
Cd488      O1977   2.065   1_455  S
Cd488      O1984   2.107   1_455  S
O489        C496   1.281       .  A
O490      Cd1235   2.107       .  S
C491        O495   1.263       .  A
O493       C1971   1.263   1_455  A
C494       O1227   1.281       .  A
C497        O498   1.277       .  A
C499        C504   1.391       .  A
C499        C718   1.460       .  S
C500        C501   1.410       .  A
C500        H505   1.077       .  S
C501        C512   1.518       .  S
C502        C503   1.401       .  A
C502        H506   1.077       .  S
C503        C504   1.400       .  A
C503        C553   1.481       .  S
C504        H507   1.085       .  S
C508        C509   1.400       .  A
C508        C513   1.400       .  A
C508        C580   1.481       .  S
C509        C510   1.405       .  A
C509        H514   1.084       .  S
C510        C511   1.409       .  A
C510        C556   1.490       .  S
C511        C512   1.425       .  A
C511        H515   1.078       .  S
C512        C513   1.409       .  A
C513        H516   1.076       .  S
C517        C518   1.392       .  A
C517        C522   1.404       .  A
C517        C703   1.460       .  S
C518        C519   1.400       .  A
C518        H523   1.085       .  S
C519        C520   1.400       .  A
C519       C1304   1.480       .  S
C520        C521   1.424       .  A
C520        H524   1.077       .  S
C521        C522   1.410       .  A
C521        C530   1.516       .  S
C522        H525   1.077       .  S
C526        C527   1.399       .  A
C527        C528   1.405       .  A
C527        H532   1.084       .  S
C528        C529   1.408       .  A
C528        C554   1.489       .  S
C529        H533   1.078       .  S
C530        C531   1.409       .  A
C531        H534   1.076       .  S
C535        C536   1.400       .  A
C535        C540   1.400       .  A
C535        C577   1.481       .  S
C536        C537   1.406       .  A
C536        H541   1.084       .  S
C537        C538   1.409       .  A
C537       C1305   1.491       .  S
C538        C539   1.425       .  A
C538        H542   1.078       .  S
C539        C540   1.409       .  A
C539        C546   1.517       .  S
C540        H543   1.076       .  S
C544        C545   1.404       .  A
C544        C549   1.392       .  A
C544        C717   1.461       .  S
C545        C546   1.409       .  A
C545        H550   1.077       .  S
C546        C547   1.424       .  A
C547        C548   1.402       .  A
C547        H551   1.077       .  S
C548        C549   1.400       .  A
C548        C555   1.482       .  S
C549        H552   1.085       .  S
C553        C554   1.408       .  A
C553        C558   1.412       .  A
C554        C555   1.412       .  A
C555        C556   1.408       .  A
C556        C557   1.413       .  A
C557        C558   1.408       .  A
C557       C2013   1.480   1_455  S
C558       C2031   1.491   1_455  S
O559        C575   1.265       .  A
O559       Zn565   1.964       .  S
C560        C609   1.461       .  S
C560        O576   1.265       .  A
C560        O573   1.278       .  A
O562        C580   1.277       .  A
O562       Cd571   2.068       .  S
O563        C577   1.277       .  A
O563       Cd567   2.068       .  S
O564        C575   1.278       .  A
O564       Cd567   2.110       .  S
Zn565       O576   1.961       .  S
Zn565       O578   1.964       .  S
Zn565       O570   1.834       .  S
O566        C577   1.281       .  A
O566       Cd571   2.074       .  S
Cd567       O569   2.076       .  S
Cd567       O570   1.966       .  S
Cd568       O572   2.069       .  S
Cd568       O581   2.073       .  S
Cd568       O570   1.966       .  S
O569        C579   1.281       .  A
O570       Cd571   1.966       .  S
Cd571       O573   2.108       .  S
O572        C579   1.277       .  A
C574        O578   1.264       .  A
C575        C627   1.462       .  S
C580        O581   1.281       .  A
C582        C583   1.389       .  A
C582        C587   1.401       .  A
C582        C740   1.462       .  S
C583        H588   1.085       .  S
C584        C585   1.406       .  A
C585        C586   1.426       .  A
C585        H589   1.076       .  S
C587        H590   1.075       .  S
C591        C592   1.401       .  A
C591        C596   1.388       .  A
C592        C593   1.415       .  A
C592        H597   1.075       .  S
C593        C594   1.426       .  A
C594        C595   1.404       .  A
C594        H598   1.075       .  S
C595        C596   1.398       .  A
C595       C2135   1.480   1_455  S
C596        H599   1.085       .  S
C600        C601   1.401       .  A
C600        C605   1.389       .  A
C600        C741   1.461       .  S
C601        C602   1.414       .  A
C601        H606   1.075       .  S
C602        C603   1.427       .  A
C602        C611   1.523       .  S
C603        C604   1.405       .  A
C603        H607   1.076       .  S
C604        C605   1.399       .  A
C604       C2134   1.482   1_455  S
C605        H608   1.085       .  S
C609        C610   1.401       .  A
C609        C614   1.389       .  A
C610        C611   1.414       .  A
C610        H615   1.076       .  S
C611        C612   1.426       .  A
C612        C613   1.404       .  A
C612        H616   1.076       .  S
C613        C614   1.398       .  A
C613        C637   1.480       .  S
C614        H617   1.085       .  S
C618        C619   1.388       .  A
C618        C623   1.401       .  A
C618        C726   1.462       .  S
C619        C620   1.398       .  A
C619        H624   1.085       .  S
C620        C621   1.404       .  A
C620        C636   1.480       .  S
C621        C622   1.425       .  A
C621        H625   1.076       .  S
C622        C623   1.415       .  A
C622        C629   1.523       .  S
C623        H626   1.075       .  S
C627        C628   1.402       .  A
C627        C632   1.390       .  A
C628        C629   1.415       .  A
C628        H633   1.076       .  S
C629        C630   1.425       .  A
C630        C631   1.403       .  A
C630       H1381   1.076       .  S
C631        C632   1.398       .  A
C631        C639   1.479       .  S
C632        H635   1.085       .  S
H634       C2124   1.076       .  S
C636        C637   1.407       .  A
C636        C641   1.407       .  A
C637        C638   1.407       .  A
C639        C640   1.408       .  A
C640       C1351   1.482       .  S
C641       C1342   1.480       .  S
C642        C643   1.402       .  A
C642        C647   1.401       .  A
C642        C745   1.480       .  S
C643        C644   1.405       .  A
C643        H648   1.084       .  S
C644        C645   1.403       .  A
C644        C696   1.489       .  S
C645        C646   1.425       .  A
C645        H649   1.077       .  S
C646        C647   1.407       .  A
C646        C655   1.515       .  S
C647        H650   1.076       .  S
C651        C652   1.400   1_565  A
C651        C656   1.400       .  A
C651        C723   1.473       .  S
C652        C653   1.406       .  A
C653        C654   1.404   1_545  A
C654        C655   1.425       .  A
C654        H658   1.077       .  S
C655        C656   1.405       .  A
C656        H659   1.077       .  S
C660        C661   1.400       .  A
C660        C746   1.480       .  S
C661        C662   1.407       .  A
C661       H2160   1.075   1_455  S
C662        C663   1.426       .  A
C662        C673   1.517   1_455  S
C664        C665   1.406       .  A
C664        C700   1.488       .  S
C665        H668   1.084       .  S
H666       C1408   1.075       .  S
C669        C670   1.399       .  A
C669       C1421   1.400       .  A
C669        C722   1.474       .  S
C670        C671   1.406       .  A
C670        H675   1.084       .  S
C671        C672   1.404       .  A
C671        C697   1.488       .  S
C672       C1420   1.425       .  A
C672        H676   1.077       .  S
C673       C2166   1.425       .  A
C673        C674   1.406       .  A
C674       C2163   1.400       .  A
C674        H677   1.076   1_655  S
C678        C679   1.399       .  A
C678        C683   1.400       .  A
C678        C720   1.473       .  S
C679        C680   1.406       .  A
C679        H684   1.084       .  S
C680        C681   1.404       .  A
C680        C701   1.489       .  S
C681        C682   1.425       .  A
C681        H685   1.077       .  S
C682        C683   1.405       .  A
C682       C2185   1.515   1_455  S
C683       H2180   1.077   1_455  S
H686       C1430   1.077       .  S
C687        C688   1.402       .  A
C687        C692   1.400       .  A
C687        C743   1.480       .  S
C688        C689   1.406       .  A
C688        H693   1.084       .  S
C689        C690   1.403       .  A
C689        C698   1.489       .  S
C690        C691   1.425       .  A
C690        H694   1.077       .  S
C691        C692   1.407       .  A
C691       C1429   1.515       .  S
C692       H1442   1.076       .  S
H695       C2186   1.076   1_455  S
C696        C697   1.412       .  A
C696        C701   1.410       .  A
C697        C698   1.410       .  A
C698        C699   1.413       .  A
C699        C700   1.411       .  A
C700        C701   1.413       .  A
O702        C718   1.263   1_655  A
O702      Zn2202   1.956       .  S
C703        O719   1.263       .  A
C703        O716   1.277       .  A
O704        C717   1.277       .  A
O704       Cd711   2.109   1_554  S
O705       Cd714   2.059       .  S
O706        C720   1.275       .  A
O707        C718   1.278       .  A
O707       Cd710   2.109   1_554  S
Zn708      O1449   1.956       .  S
Zn708       O721   1.959       .  S
Zn708       O713   1.829   1_554  S
O709       C1467   1.281       .  A
O709       Cd714   2.069       .  S
Cd710      O2206   2.072   1_455  S
Cd710      O2207   1.960   1_455  S
Cd711       O715   2.060       .  S
Cd711       O724   2.070       .  S
Cd711       O713   1.961       .  S
O712        C722   1.281       .  A
O712      Cd1457   2.072       .  S
O713      Cd1457   1.960       .  S
Cd714       O716   2.107   1_556  S
O715        C722   1.275       .  A
C717        O721   1.263       .  A
C720       O2203   1.281       .  A
C723        O724   1.281       .  A
O725        C741   1.264       .  A
O725       Zn731   1.959       .  S
C726       O1489   1.264       .  A
C726        O739   1.277       .  A
O727        C740   1.277       .  A
O727       Cd734   2.108       .  S
O728        C746   1.282       .  A
O728       Cd737   2.076       .  S
O729       C2237   1.281   1_455  A
O729       Cd733   2.076       .  S
O730        C741   1.277       .  A
O730       Cd733   2.108       .  S
Zn731       O742   1.961       .  S
Zn731       O744   1.962       .  S
Zn731       O736   1.831       .  S
O732        C743   1.276       .  A
O732      Cd1484   2.066       .  S
Cd733       O735   2.065       .  S
Cd733       O736   1.964       .  S
Cd734       O738   2.072       .  S
Cd734       O747   2.063       .  S
Cd734       O736   1.962       .  S
O735        C745   1.277       .  A
O736       Cd737   1.963       .  S
Cd737      O2226   2.066   1_455  S
Cd737      O2233   2.108   1_455  S
O738        C745   1.281       .  A
O739      Cd1484   2.108       .  S
C740        O744   1.264       .  A
O742       C2220   1.264   1_455  A
C743       O1476   1.281       .  A
C746        O747   1.276       .  A
C748        C998   1.403       .  A
C748        C753   1.392       .  A
C748        C967   1.460       .  S
C749       C1246   1.403   1_545  A
C749        C750   1.409       .  A
C749        H754   1.077       .  S
C750       C1249   1.424   1_545  A
C750        C761   1.517       .  S
C751        C999   1.425       .  A
C751        C752   1.402       .  A
C751        H755   1.077       .  S
C752        C753   1.400       .  A
C752        C802   1.483       .  S
C753        H756   1.085       .  S
C757        C758   1.400       .  A
C757        C762   1.400       .  A
C757        C829   1.481       .  S
C758        C759   1.405       .  A
C758        H763   1.084       .  S
C759        C760   1.409       .  A
C759        C805   1.490       .  S
C760        C761   1.425       .  A
C760        H764   1.078       .  S
C761        C762   1.409       .  A
C762        H765   1.076       .  S
C766        C767   1.391       .  A
C766        C771   1.404       .  A
C766        C952   1.461       .  S
C767        C768   1.399       .  A
C767        H772   1.085       .  S
C768        C769   1.402       .  A
C768       C1553   1.481       .  S
C769        C770   1.424       .  A
C769        H773   1.077       .  S
C770        C771   1.411       .  A
C770        C779   1.518       .  S
C771        H774   1.077       .  S
C775        C776   1.400       .  A
C775       C1029   1.401       .  A
C775       C1077   1.481       .  S
C776        C777   1.406       .  A
C776        H781   1.084       .  S
C777        C778   1.409       .  A
C777        C803   1.491       .  S
C778       C1028   1.426       .  A
C778        H782   1.078       .  S
C779       C1276   1.424   1_545  A
C779        C780   1.410       .  A
C780       C1273   1.401   1_545  A
C780        H783   1.076       .  S
C784        C785   1.400       .  A
C784        C789   1.400       .  A
C784        C826   1.481       .  S
C785        C786   1.406       .  A
C785        H790   1.084       .  S
C786        C787   1.409       .  A
C786       C1554   1.490       .  S
C787        C788   1.425       .  A
C787        H791   1.078       .  S
C788        C789   1.409       .  A
C788        C795   1.518       .  S
C789        H792   1.075       .  S
C793        C794   1.404       .  A
C793        C798   1.392       .  A
C793        C966   1.461       .  S
C794        C795   1.410       .  A
C794        H799   1.077       .  S
C795        C796   1.425       .  A
C796        C797   1.401       .  A
C796        H800   1.077       .  S
C797        C798   1.400       .  A
C797        C804   1.482       .  S
C798        H801   1.085       .  S
C802        C803   1.409       .  A
C802        C807   1.413       .  A
C803        C804   1.413       .  A
C804        C805   1.408       .  A
C805        C806   1.412       .  A
C806        C807   1.408       .  A
O808        C824   1.264       .  A
O808       Zn814   1.961       .  S
C809        C858   1.463       .  S
C809        O825   1.264       .  A
C809        O822   1.278       .  A
O810       C1072   1.277       .  A
O810      Cd1066   2.107       .  S
O811        C829   1.277       .  A
O811       Cd820   2.068       .  S
O812        C826   1.277       .  A
O812       Cd816   2.069       .  S
O813        C824   1.277       .  A
O813       Cd816   2.108       .  S
Zn814       O825   1.963       .  S
Zn814       O827   1.960       .  S
Zn814       O819   1.834       .  S
O815        C826   1.281       .  A
O815       Cd820   2.075       .  S
Cd816       O818   2.074       .  S
Cd816       O819   1.964       .  S
Cd817      O1308   2.106   1_545  S
Cd817       O821   2.067       .  S
Cd817       O830   2.074       .  S
Cd817       O819   1.965       .  S
O818        C828   1.281       .  A
O819       Cd820   1.964       .  S
Cd820       O822   2.113       .  S
O821        C828   1.277       .  A
C823       C1338   1.460   1_545  S
C823       O1308   1.277   1_545  A
C823        O827   1.264       .  A
C824        C876   1.461       .  S
C828       C1273   1.480   1_545  S
C829        O830   1.281       .  A
C831        C832   1.389       .  A
C831        C836   1.401       .  A
C831        C989   1.461       .  S
C832       C1082   1.398       .  A
C832        H837   1.085       .  S
C833       C1330   1.398       .  A
C833        C834   1.404       .  A
C833       C1385   1.480       .  S
C834        C835   1.426       .  A
C834        H838   1.076       .  S
C835       C1334   1.415       .  A
C835       C1340   1.523       .  S
C836       C1084   1.415       .  A
C836        H839   1.075       .  S
C840        C841   1.402       .  A
C840        C845   1.388       .  A
C840       C1072   1.461       .  S
C841        C842   1.415       .  A
C841        H846   1.075       .  S
C842        C843   1.426       .  A
C842       C1084   1.523       .  S
C843        C844   1.404       .  A
C843        H847   1.076       .  S
C844        C845   1.397       .  A
C845        H848   1.085       .  S
C849        C850   1.402       .  A
C849        C854   1.389       .  A
C849        C990   1.462       .  S
C850        C851   1.415       .  A
C850        H855   1.075       .  S
C851        C852   1.425       .  A
C851        C860   1.523       .  S
C852        C853   1.404       .  A
C852        H856   1.075       .  S
C853        C854   1.398       .  A
C854        H857   1.085       .  S
C858        C859   1.402       .  A
C858        C863   1.390       .  A
C859        C860   1.416       .  A
C859        H864   1.076       .  S
C860        C861   1.425       .  A
C861        C862   1.403       .  A
C861        H865   1.076       .  S
C862        C863   1.398       .  A
C862        C886   1.479       .  S
C863        H866   1.085       .  S
C867        C868   1.389       .  A
C867        C872   1.401       .  A
C867        C975   1.462       .  S
C868        C869   1.398       .  A
C868        H873   1.085       .  S
C869        C870   1.404       .  A
C869        C885   1.480       .  S
C870        C871   1.426       .  A
C870        H874   1.076       .  S
C871        C872   1.415       .  A
C871        C878   1.523       .  S
C872        H875   1.075       .  S
C876        C877   1.401       .  A
C876        C881   1.389       .  A
C877        C878   1.415       .  A
C877        H882   1.076       .  S
C878        C879   1.426       .  A
C879        C880   1.404       .  A
C879       H1630   1.075       .  S
C880        C881   1.398       .  A
C880        C888   1.480       .  S
C881        H884   1.085       .  S
C885        C886   1.407       .  A
C885        C890   1.406       .  A
C886        C887   1.408       .  A
C887       C1137   1.407       .  A
C887       C1082   1.480       .  S
C888       C1385   1.407   1_545  A
C888        C889   1.406       .  A
C889       C1388   1.407   1_545  A
C889       C1600   1.480       .  S
C890       C1138   1.407       .  A
C890       C1591   1.479       .  S
C891        C892   1.404       .  A
C891        C896   1.401       .  A
C891        C994   1.481       .  S
C892        C893   1.407       .  A
C892        H897   1.084       .  S
C893        C894   1.404       .  A
C893        C945   1.491       .  S
C894        C895   1.425       .  A
C894        H898   1.077       .  S
C895        C896   1.407       .  A
C895        C904   1.517       .  S
C896        H899   1.076       .  S
C900        C901   1.400       .  A
C900        C905   1.401       .  A
C900        C972   1.475       .  S
C901        C902   1.406       .  A
C901       H1155   1.084       .  S
C902        C903   1.404       .  A
C902       C1197   1.489       .  S
C903        C904   1.425       .  A
C903        H907   1.077       .  S
C904        C905   1.406       .  A
C905        H908   1.076       .  S
H906       C1399   1.084       .  S
C909        C910   1.401       .  A
C909       C1163   1.403       .  A
C909        C995   1.481       .  S
C910        C911   1.407       .  A
C911        C912   1.425       .  A
C911        C922   1.515       .  S
C912       C1162   1.402       .  A
C912       H1165   1.077       .  S
C913       C1410   1.404   1_545  A
C913        C914   1.406       .  A
C913        C949   1.491       .  S
C914       C1407   1.403   1_545  A
C914        H917   1.084       .  S
H915       C1657   1.076       .  S
H916       C1410   1.077       .  S
C918        C919   1.400       .  A
C918       C1670   1.399       .  A
C918        C971   1.473       .  S
C919        C920   1.407       .  A
C919        H924   1.084       .  S
C920        C921   1.404       .  A
C920        C946   1.489       .  S
C921       C1669   1.425       .  A
C921        H925   1.077       .  S
C922        C923   1.405       .  A
C923        H926   1.076       .  S
C927        C928   1.400       .  A
C927        C932   1.401       .  A
C927        C969   1.474       .  S
C928        C929   1.406       .  A
C928        H933   1.084       .  S
C929        C930   1.403       .  A
C929        C950   1.488       .  S
C930        C931   1.425       .  A
C930        H934   1.077       .  S
C931        C932   1.406       .  A
H935       C1679   1.076       .  S
C936        C937   1.403       .  A
C936        C941   1.400       .  A
C936        C992   1.481       .  S
C937        C938   1.406       .  A
C937        H942   1.084       .  S
C938        C939   1.403       .  A
C938        C947   1.490       .  S
C939        C940   1.425       .  A
C939        H943   1.077       .  S
C940        C941   1.407       .  A
C940       C1678   1.516       .  S
C941       H1691   1.076       .  S
C945        C946   1.413       .  A
C945        C950   1.412       .  A
C946        C947   1.411       .  A
C947        C948   1.414       .  A
C948        C949   1.411       .  A
C948       C1400   1.489       .  S
C949        C950   1.413       .  A
O951        C967   1.263       .  A
C952        O968   1.262       .  A
C952        O965   1.277       .  A
O953        C966   1.277       .  A
O953       Cd960   2.108   1_554  S
O954       C1470   1.275   1_545  A
O954       Cd963   2.059       .  S
O955        C969   1.275       .  A
O955      Cd1457   2.061   1_545  S
O956        C967   1.277       .  A
O956       Cd959   2.108   1_554  S
Zn957      O1698   1.958       .  S
Zn957      O1217   1.956       .  S
Zn957       O970   1.960       .  S
Zn957       O962   1.830   1_554  S
O958       C1716   1.281       .  A
O958       Cd963   2.072       .  S
Cd959      O1204   2.059       .  S
Cd960       O964   2.058       .  S
Cd960       O973   2.071       .  S
Cd960       O962   1.960       .  S
O961        C971   1.281       .  A
O961      Cd1706   2.071       .  S
O962      Cd1706   1.962       .  S
O962      Cd1212   1.961       .  S
Cd963       O965   2.111   1_556  S
Cd963      O1460   1.960   1_545  S
O964        C971   1.274       .  A
C966        O970   1.263       .  A
O968      Zn1455   1.957   1_545  S
C972       O1203   1.275       .  A
C972        O973   1.281       .  A
O974        C990   1.264       .  A
O974       Zn980   1.960       .  S
C975       O1738   1.264       .  A
C975        O988   1.277       .  A
O976        C989   1.277       .  A
O976       Cd983   2.109       .  S
O977        C995   1.281       .  A
O977       Cd986   2.074       .  S
O978       Cd982   2.076       .  S
O979        C990   1.277       .  A
O979       Cd982   2.109       .  S
Zn980       O991   1.961       .  S
Zn980       O993   1.960       .  S
Zn980       O985   1.833       .  S
O981        C992   1.276       .  A
O981      Cd1733   2.067       .  S
Cd982       O984   2.066       .  S
Cd982       O985   1.962       .  S
Cd983       O987   2.077       .  S
Cd983       O996   2.068       .  S
Cd983       O985   1.964       .  S
O984        C994   1.276       .  A
O985       Cd986   1.963       .  S
O987        C994   1.282       .  A
O988      Cd1733   2.110       .  S
C989        O993   1.264       .  A
C992       O1725   1.281       .  A
C995        O996   1.277       .  A
C997       C1247   1.404       .  A
C997       C1002   1.392       .  A
C997       C1216   1.462       .  S
C998        C999   1.409       .  A
C998       H1003   1.077       .  S
C999       C1010   1.518       .  S
C1000      C1248   1.425       .  A
C1000      C1001   1.402       .  A
C1000      H1004   1.077       .  S
C1001      C1002   1.400       .  A
C1001      C1051   1.483       .  S
C1002      H1005   1.085       .  S
C1006      C1007   1.399       .  A
C1006      C1011   1.400       .  A
C1006      C1078   1.480       .  S
C1007      C1008   1.405       .  A
C1007      H1012   1.084       .  S
C1008      C1009   1.408       .  A
C1008      C1054   1.489       .  S
C1009      C1010   1.425       .  A
C1009      H1013   1.078       .  S
C1010      C1011   1.409       .  A
C1011      H1014   1.075       .  S
C1015      C1016   1.391       .  A
C1015      C1020   1.404       .  A
C1015      C1201   1.461       .  S
C1016      C1017   1.400       .  A
C1016      H1021   1.085       .  S
C1017      C1018   1.403       .  A
C1017      C1802   1.484       .  S
C1018      C1019   1.427       .  A
C1018      H1022   1.077       .  S
C1019      C1020   1.410       .  A
C1019      C1028   1.520       .  S
C1020      H1023   1.077       .  S
C1024      C1025   1.400       .  A
C1024      C1278   1.399       .  A
C1024      C1326   1.482       .  S
C1025      C1026   1.406       .  A
C1025      H1030   1.084       .  S
C1026      C1027   1.408       .  A
C1026      C1052   1.490       .  S
C1027      C1277   1.424       .  A
C1027      H1031   1.078       .  S
C1028      C1029   1.409       .  A
C1029      H1032   1.075       .  S
C1033      C1034   1.401       .  A
C1033      C1038   1.400       .  A
C1033      C1075   1.482       .  S
C1034      C1035   1.406       .  A
C1034      H1039   1.084       .  S
C1035      C1036   1.408       .  A
C1035      C1803   1.490       .  S
C1036      C1037   1.424       .  A
C1036      H1040   1.078       .  S
C1037      C1038   1.409       .  A
C1037      C1044   1.518       .  S
C1038      H1041   1.076       .  S
C1042      C1043   1.404       .  A
C1042      C1047   1.391       .  A
C1042      C1215   1.461       .  S
C1043      C1044   1.410       .  A
C1043      H1048   1.077       .  S
C1044      C1045   1.425       .  A
C1045      C1046   1.402       .  A
C1045      H1049   1.077       .  S
C1046      C1047   1.399       .  A
C1046      C1053   1.482       .  S
C1047      H1050   1.085       .  S
C1051      C1052   1.408       .  A
C1051      C1056   1.413       .  A
C1052      C1053   1.412       .  A
C1053      C1054   1.409       .  A
C1054      C1055   1.413       .  A
C1055      C1056   1.409       .  A
O1057      C1073   1.264       .  A
O1057     Zn1063   1.959       .  S
C1058      C1107   1.462       .  S
C1058      O1074   1.264       .  A
C1058      O1071   1.278       .  A
O1059      C1321   1.278       .  A
O1059     Cd1315   2.112       .  S
O1060      C1078   1.277       .  A
O1060     Cd1069   2.067       .  S
O1061      C1075   1.277       .  A
O1061     Cd1065   2.069       .  S
O1062      C1073   1.278       .  A
O1062     Cd1065   2.109       .  S
Zn1063     O1074   1.961       .  S
Zn1063     O1076   1.961       .  S
Zn1063     O1068   1.834       .  S
O1064      C1075   1.281       .  A
O1064     Cd1069   2.077       .  S
Cd1065     O1067   2.074       .  S
Cd1065     O1068   1.964       .  S
Cd1066     O1070   2.069       .  S
Cd1066     O1079   2.072       .  S
Cd1066     O1068   1.965       .  S
O1067      C1077   1.281       .  A
O1068     Cd1069   1.965       .  S
Cd1069     O1071   2.113       .  S
O1070      C1077   1.277       .  A
C1072      O1076   1.264       .  A
C1073      C1125   1.461       .  S
C1078      O1079   1.281       .  A
C1080      C1081   1.388       .  A
C1080      C1085   1.401       .  A
C1080      C1238   1.460       .  S
C1081      C1331   1.398       .  A
C1081      H1086   1.085       .  S
C1082      C1083   1.405       .  A
C1083      C1084   1.426       .  A
C1083      H1087   1.076       .  S
C1085      C1333   1.414       .  A
C1085      H1088   1.075       .  S
C1089      C1090   1.402       .  A
C1089      C1094   1.391       .  A
C1089      C1321   1.463       .  S
C1090      C1091   1.415       .  A
C1090      H1095   1.076       .  S
C1091      C1092   1.425       .  A
C1091      C1333   1.523       .  S
C1092      C1093   1.403       .  A
C1092      H1096   1.076       .  S
C1093      C1094   1.399       .  A
C1094      H1097   1.085       .  S
C1098      C1099   1.401       .  A
C1098      C1103   1.388       .  A
C1098      C1239   1.460       .  S
C1099      C1100   1.414       .  A
C1099      H1104   1.075       .  S
C1100      C1101   1.426       .  A
C1100      C1109   1.523       .  S
C1101      C1102   1.404       .  A
C1101      H1105   1.075       .  S
C1102      C1103   1.397       .  A
C1103      H1106   1.085       .  S
C1107      C1108   1.402       .  A
C1107      C1112   1.389       .  A
C1108      C1109   1.415       .  A
C1108      H1113   1.076       .  S
C1109      C1110   1.426       .  A
C1110      C1111   1.405       .  A
C1110      H1114   1.076       .  S
C1111      C1112   1.398       .  A
C1111      C1135   1.481       .  S
C1112      H1115   1.085       .  S
C1116      C1117   1.389       .  A
C1116      C1121   1.402       .  A
C1116      C1224   1.461       .  S
C1117      C1118   1.398       .  A
C1117      H1122   1.085       .  S
C1118      C1119   1.404       .  A
C1118      C1134   1.481       .  S
C1119      C1120   1.426       .  A
C1119      H1123   1.075       .  S
C1120      C1121   1.415       .  A
C1120      C1127   1.524       .  S
C1121      H1124   1.076       .  S
C1125      C1126   1.401       .  A
C1125      C1130   1.389       .  A
C1126      C1127   1.415       .  A
C1126      H1131   1.075       .  S
C1127      C1128   1.426       .  A
C1128      C1129   1.406       .  A
C1128      H1879   1.076       .  S
C1129      C1130   1.398       .  A
C1129      C1137   1.481       .  S
C1130      H1133   1.085       .  S
C1134      C1135   1.407       .  A
C1134      C1139   1.408       .  A
C1135      C1136   1.407       .  A
C1136      C1386   1.407       .  A
C1136      C1331   1.481       .  S
C1137      C1138   1.407       .  A
C1138      C1849   1.479       .  S
C1139      C1387   1.407       .  A
C1139      C1840   1.481       .  S
C1140      C1141   1.403       .  A
C1140      C1145   1.401       .  A
C1140      C1243   1.481       .  S
C1141      C1142   1.406       .  A
C1141      H1146   1.084       .  S
C1142      C1143   1.402       .  A
C1142      C1194   1.489       .  S
C1143      C1144   1.425       .  A
C1143      H1147   1.077       .  S
C1144      C1145   1.407       .  A
C1144      C1153   1.515       .  S
C1145      H1148   1.076       .  S
C1149      C1150   1.400       .  A
C1149      C1154   1.399       .  A
C1149      C1221   1.473       .  S
C1150      C1151   1.407       .  A
C1150      H1404   1.084       .  S
C1151      C1152   1.404       .  A
C1151      C1446   1.489       .  S
C1152      C1153   1.425       .  A
C1152      H1156   1.077       .  S
C1153      C1154   1.405       .  A
C1154      H1157   1.076       .  S
C1158      C1159   1.401       .  A
C1158      C1412   1.402       .  A
C1158      C1244   1.480       .  S
C1159      C1160   1.407       .  A
C1160      C1161   1.424       .  A
C1160      C1171   1.515       .  S
C1161      C1411   1.403       .  A
C1161      H1414   1.077       .  S
C1162      C1163   1.406       .  A
C1162      C1198   1.489       .  S
C1163      H1166   1.084       .  S
H1164      C1906   1.075       .  S
C1167      C1168   1.400       .  A
C1167      C1919   1.400       .  A
C1167      C1220   1.474       .  S
C1168      C1169   1.406       .  A
C1168      H1173   1.084       .  S
C1169      C1170   1.403       .  A
C1169      C1195   1.488       .  S
C1170      C1918   1.425       .  A
C1170      H1174   1.077       .  S
C1171      C1172   1.406       .  A
C1172      H1175   1.077       .  S
C1176      C1177   1.400       .  A
C1176      C1181   1.399       .  A
C1176      C1218   1.474       .  S
C1177      C1178   1.407       .  A
C1177      H1182   1.084       .  S
C1178      C1179   1.404       .  A
C1178      C1199   1.490       .  S
C1179      C1180   1.425       .  A
C1179      H1183   1.077       .  S
C1180      C1181   1.405       .  A
H1184      C1928   1.076       .  S
C1185      C1186   1.403       .  A
C1185      C1190   1.401       .  A
C1185      C1241   1.480       .  S
C1186      C1187   1.406       .  A
C1186      H1191   1.084       .  S
C1187      C1188   1.402       .  A
C1187      C1196   1.489       .  S
C1188      C1189   1.425       .  A
C1188      H1192   1.077       .  S
C1189      C1190   1.406       .  A
C1189      C1927   1.515       .  S
C1190      H1940   1.076       .  S
C1194      C1195   1.413       .  A
C1194      C1199   1.411       .  A
C1195      C1196   1.410       .  A
C1196      C1197   1.413       .  A
C1197      C1198   1.411       .  A
C1198      C1199   1.413       .  A
O1200      C1216   1.263       .  A
C1201      O1217   1.263       .  A
C1201      O1214   1.278       .  A
O1202      C1215   1.278       .  A
O1202     Cd1209   2.111   1_554  S
O1203     Cd1212   2.063       .  S
O1204      C1218   1.275       .  A
O1205      C1216   1.278       .  A
O1205     Cd1208   2.111   1_554  S
Zn1206     O1947   1.958       .  S
Zn1206     O1466   1.959       .  S
Zn1206     O1219   1.955       .  S
Zn1206     O1211   1.829   1_554  S
O1207      C1965   1.281       .  A
O1207     Cd1212   2.072       .  S
Cd1208     O1453   2.058       .  S
Cd1209     O1213   2.060       .  S
Cd1209     O1222   2.073       .  S
Cd1209     O1211   1.960       .  S
O1210      C1220   1.281       .  A
O1210     Cd1955   2.070       .  S
O1211     Cd1955   1.959       .  S
O1211     Cd1461   1.961       .  S
Cd1212     O1214   2.113   1_556  S
O1213      C1220   1.275       .  A
C1215      O1219   1.263       .  A
C1221      O1452   1.274       .  A
C1221      O1222   1.281       .  A
O1223      C1239   1.264       .  A
O1223     Zn1229   1.961       .  S
C1224      O1987   1.263       .  A
C1224      O1237   1.277       .  A
O1225      C1238   1.277       .  A
O1225     Cd1232   2.107       .  S
O1226      C1244   1.281       .  A
O1226     Cd1235   2.073       .  S
O1227     Cd1231   2.074       .  S
O1228      C1239   1.277       .  A
O1228     Cd1231   2.105       .  S
Zn1229     O1240   1.961       .  S
Zn1229     O1242   1.957       .  S
Zn1229     O1234   1.831       .  S
O1230      C1241   1.276       .  A
O1230     Cd1982   2.065       .  S
Cd1231     O1233   2.068       .  S
Cd1231     O1234   1.962       .  S
Cd1232     O1236   2.074       .  S
Cd1232     O1245   2.067       .  S
Cd1232     O1234   1.962       .  S
O1233      C1243   1.277       .  A
O1234     Cd1235   1.963       .  S
O1236      C1243   1.281       .  A
O1237     Cd1982   2.107       .  S
C1238      O1242   1.263       .  A
C1241      O1974   1.281       .  A
C1244      O1245   1.277       .  A
C1246      C1251   1.391       .  A
C1246      C1465   1.460       .  S
C1247      C1248   1.410       .  A
C1247      H1252   1.077       .  S
C1248      C1259   1.518       .  S
C1249      C1250   1.401       .  A
C1249      H1253   1.077       .  S
C1250      C1251   1.400       .  A
C1250      C1300   1.481       .  S
C1251      H1254   1.085       .  S
C1255      C1256   1.400       .  A
C1255      C1260   1.400       .  A
C1255      C1327   1.481       .  S
C1256      C1257   1.405       .  A
C1256      H1261   1.084       .  S
C1257      C1258   1.409       .  A
C1257      C1303   1.490       .  S
C1258      C1259   1.425       .  A
C1258      H1262   1.078       .  S
C1259      C1260   1.409       .  A
C1260      H1263   1.076       .  S
C1264      C1265   1.392       .  A
C1264      C1269   1.404       .  A
C1264      C1450   1.460       .  S
C1265      C1266   1.400       .  A
C1265      H1270   1.085       .  S
C1266      C1267   1.400       .  A
C1266      C2051   1.480       .  S
C1267      C1268   1.424       .  A
C1267      H1271   1.077       .  S
C1268      C1269   1.410       .  A
C1268      C1277   1.516       .  S
C1269      H1272   1.077       .  S
C1273      C1274   1.399       .  A
C1274      C1275   1.405       .  A
C1274      H1279   1.084       .  S
C1275      C1276   1.408       .  A
C1275      C1301   1.489       .  S
C1276      H1280   1.078       .  S
C1277      C1278   1.409       .  A
C1278      H1281   1.076       .  S
C1282      C1283   1.400       .  A
C1282      C1287   1.400       .  A
C1282      C1324   1.481       .  S
C1283      C1284   1.406       .  A
C1283      H1288   1.084       .  S
C1284      C1285   1.409       .  A
C1284      C2052   1.491       .  S
C1285      C1286   1.425       .  A
C1285      H1289   1.078       .  S
C1286      C1287   1.409       .  A
C1286      C1293   1.517       .  S
C1287      H1290   1.076       .  S
C1291      C1292   1.404       .  A
C1291      C1296   1.392       .  A
C1291      C1464   1.461       .  S
C1292      C1293   1.409       .  A
C1292      H1297   1.077       .  S
C1293      C1294   1.424       .  A
C1294      C1295   1.402       .  A
C1294      H1298   1.077       .  S
C1295      C1296   1.400       .  A
C1295      C1302   1.482       .  S
C1296      H1299   1.085       .  S
C1300      C1301   1.408       .  A
C1300      C1305   1.412       .  A
C1301      C1302   1.412       .  A
C1302      C1303   1.408       .  A
C1303      C1304   1.413       .  A
C1304      C1305   1.408       .  A
O1306      C1322   1.265       .  A
O1306     Zn1312   1.964       .  S
C1307      C1356   1.461       .  S
C1307      O1323   1.265       .  A
C1307      O1320   1.278       .  A
O1309      C1327   1.277       .  A
O1309     Cd1318   2.068       .  S
O1310      C1324   1.277       .  A
O1310     Cd1314   2.068       .  S
O1311      C1322   1.278       .  A
O1311     Cd1314   2.110       .  S
Zn1312     O1323   1.961       .  S
Zn1312     O1325   1.964       .  S
Zn1312     O1317   1.834       .  S
O1313      C1324   1.281       .  A
O1313     Cd1318   2.074       .  S
Cd1314     O1316   2.076       .  S
Cd1314     O1317   1.966       .  S
Cd1315     O1319   2.069       .  S
Cd1315     O1328   2.073       .  S
Cd1315     O1317   1.966       .  S
O1316      C1326   1.281       .  A
O1317     Cd1318   1.966       .  S
Cd1318     O1320   2.108       .  S
O1319      C1326   1.277       .  A
C1321      O1325   1.264       .  A
C1322      C1374   1.462       .  S
C1327      O1328   1.281       .  A
C1329      C1330   1.389       .  A
C1329      C1334   1.401       .  A
C1329      C1487   1.462       .  S
C1330      H1335   1.085       .  S
C1331      C1332   1.406       .  A
C1332      C1333   1.426       .  A
C1332      H1336   1.076       .  S
C1334      H1337   1.075       .  S
C1338      C1339   1.401       .  A
C1338      C1343   1.388       .  A
C1339      C1340   1.415       .  A
C1339      H1344   1.075       .  S
C1340      C1341   1.426       .  A
C1341      C1342   1.404       .  A
C1341      H1345   1.075       .  S
C1342      C1343   1.398       .  A
C1343      H1346   1.085       .  S
C1347      C1348   1.401       .  A
C1347      C1352   1.389       .  A
C1347      C1488   1.461       .  S
C1348      C1349   1.414       .  A
C1348      H1353   1.075       .  S
C1349      C1350   1.427       .  A
C1349      C1358   1.523       .  S
C1350      C1351   1.405       .  A
C1350      H1354   1.076       .  S
C1351      C1352   1.399       .  A
C1352      H1355   1.085       .  S
C1356      C1357   1.401       .  A
C1356      C1361   1.389       .  A
C1357      C1358   1.414       .  A
C1357      H1362   1.076       .  S
C1358      C1359   1.426       .  A
C1359      C1360   1.404       .  A
C1359      H1363   1.076       .  S
C1360      C1361   1.398       .  A
C1360      C1384   1.480       .  S
C1361      H1364   1.085       .  S
C1365      C1366   1.388       .  A
C1365      C1370   1.401       .  A
C1365      C1473   1.462       .  S
C1366      C1367   1.398       .  A
C1366      H1371   1.085       .  S
C1367      C1368   1.404       .  A
C1367      C1383   1.480       .  S
C1368      C1369   1.425       .  A
C1368      H1372   1.076       .  S
C1369      C1370   1.415       .  A
C1369      C1376   1.523       .  S
C1370      H1373   1.075       .  S
C1374      C1375   1.402       .  A
C1374      C1379   1.390       .  A
C1375      C1376   1.415       .  A
C1375      H1380   1.076       .  S
C1376      C1377   1.425       .  A
C1377      C1378   1.403       .  A
C1377      H2128   1.076       .  S
C1378      C1379   1.398       .  A
C1378      C1386   1.479       .  S
C1379      H1382   1.085       .  S
C1383      C1384   1.407       .  A
C1383      C1388   1.407       .  A
C1384      C1385   1.407       .  A
C1386      C1387   1.408       .  A
C1387      C2098   1.482       .  S
C1388      C2089   1.480       .  S
C1389      C1390   1.402       .  A
C1389      C1394   1.401       .  A
C1389      C1492   1.480       .  S
C1390      C1391   1.405       .  A
C1390      H1395   1.084       .  S
C1391      C1392   1.403       .  A
C1391      C1443   1.489       .  S
C1392      C1393   1.425       .  A
C1392      H1396   1.077       .  S
C1393      C1394   1.407       .  A
C1393      C1402   1.515       .  S
C1394      H1397   1.076       .  S
C1398      C1399   1.400   1_565  A
C1398      C1403   1.400       .  A
C1398      C1470   1.473       .  S
C1399      C1400   1.406       .  A
C1400      C1401   1.404   1_545  A
C1401      C1402   1.425       .  A
C1401      H1405   1.077       .  S
C1402      C1403   1.405       .  A
C1403      H1406   1.077       .  S
C1407      C1408   1.400       .  A
C1407      C1493   1.480       .  S
C1408      C1409   1.407       .  A
C1409      C1410   1.426       .  A
C1409      C1420   1.517       .  S
C1411      C1412   1.406       .  A
C1411      C1447   1.488       .  S
C1412      H1415   1.084       .  S
H1413      C2155   1.075       .  S
C1416      C1417   1.399       .  A
C1416      C2168   1.400       .  A
C1416      C1469   1.474       .  S
C1417      C1418   1.406       .  A
C1417      H1422   1.084       .  S
C1418      C1419   1.404       .  A
C1418      C1444   1.488       .  S
C1419      C2167   1.425       .  A
C1419      H1423   1.077       .  S
C1420      C1421   1.406       .  A
C1421      H1424   1.076       .  S
C1425      C1426   1.399       .  A
C1425      C1430   1.400       .  A
C1425      C1467   1.473       .  S
C1426      C1427   1.406       .  A
C1426      H1431   1.084       .  S
C1427      C1428   1.404       .  A
C1427      C1448   1.489       .  S
C1428      C1429   1.425       .  A
C1428      H1432   1.077       .  S
C1429      C1430   1.405       .  A
H1433      C2177   1.077       .  S
C1434      C1435   1.402       .  A
C1434      C1439   1.400       .  A
C1434      C1490   1.480       .  S
C1435      C1436   1.406       .  A
C1435      H1440   1.084       .  S
C1436      C1437   1.403       .  A
C1436      C1445   1.489       .  S
C1437      C1438   1.425       .  A
C1437      H1441   1.077       .  S
C1438      C1439   1.407       .  A
C1438      C2176   1.515       .  S
C1439      H2189   1.076       .  S
C1443      C1444   1.412       .  A
C1443      C1448   1.410       .  A
C1444      C1445   1.410       .  A
C1445      C1446   1.413       .  A
C1446      C1447   1.411       .  A
C1447      C1448   1.413       .  A
O1449      C1465   1.263       .  A
C1450      O1466   1.263       .  A
C1450      O1463   1.277       .  A
O1451      C1464   1.277       .  A
O1451     Cd1458   2.109   1_554  S
O1452     Cd1461   2.059       .  S
O1453      C1467   1.275       .  A
O1454      C1465   1.278       .  A
O1454     Cd1457   2.109   1_554  S
Zn1455     O2196   1.956       .  S
Zn1455     O1468   1.959       .  S
Zn1455     O1460   1.829   1_554  S
O1456      C2214   1.281       .  A
O1456     Cd1461   2.069       .  S
Cd1458     O1462   2.060       .  S
Cd1458     O1471   2.070       .  S
Cd1458     O1460   1.961       .  S
O1459      C1469   1.281       .  A
O1459     Cd2204   2.072       .  S
O1460     Cd2204   1.960       .  S
Cd1461     O1463   2.107   1_556  S
O1462      C1469   1.275       .  A
C1464      O1468   1.263       .  A
C1470      O1471   1.281       .  A
O1472      C1488   1.264       .  A
O1472     Zn1478   1.959       .  S
C1473      O2236   1.264       .  A
C1473      O1486   1.277       .  A
O1474      C1487   1.277       .  A
O1474     Cd1481   2.108       .  S
O1475      C1493   1.282       .  A
O1475     Cd1484   2.076       .  S
O1476     Cd1480   2.076       .  S
O1477      C1488   1.277       .  A
O1477     Cd1480   2.108       .  S
Zn1478     O1489   1.961       .  S
Zn1478     O1491   1.962       .  S
Zn1478     O1483   1.831       .  S
O1479      C1490   1.276       .  A
O1479     Cd2231   2.066       .  S
Cd1480     O1482   2.065       .  S
Cd1480     O1483   1.964       .  S
Cd1481     O1485   2.072       .  S
Cd1481     O1494   2.063       .  S
Cd1481     O1483   1.962       .  S
O1482      C1492   1.277       .  A
O1483     Cd1484   1.963       .  S
O1485      C1492   1.281       .  A
O1486     Cd2231   2.108       .  S
C1487      O1491   1.264       .  A
C1490      O2223   1.281       .  A
C1493      O1494   1.276       .  A
C1495      C1745   1.403       .  A
C1495      C1500   1.392       .  A
C1495      C1714   1.460       .  S
C1496      C1993   1.403   1_545  A
C1496      C1497   1.409       .  A
C1496      H1501   1.077       .  S
C1497      C1996   1.424   1_545  A
C1497      C1508   1.517       .  S
C1498      C1746   1.425       .  A
C1498      C1499   1.402       .  A
C1498      H1502   1.077       .  S
C1499      C1500   1.400       .  A
C1499      C1549   1.483       .  S
C1500      H1503   1.085       .  S
C1504      C1505   1.400       .  A
C1504      C1509   1.400       .  A
C1504      C1576   1.481       .  S
C1505      C1506   1.405       .  A
C1505      H1510   1.084       .  S
C1506      C1507   1.409       .  A
C1506      C1552   1.490       .  S
C1507      C1508   1.425       .  A
C1507      H1511   1.078       .  S
C1508      C1509   1.409       .  A
C1509      H1512   1.076       .  S
C1513      C1514   1.391       .  A
C1513      C1518   1.404       .  A
C1513      C1699   1.461       .  S
C1514      C1515   1.399       .  A
C1514      H1519   1.085   1_655  S
C1515      C1516   1.402       .  A
C1516      C1517   1.424       .  A
C1516      H1520   1.077       .  S
C1517      C1518   1.411       .  A
C1517      C1526   1.518       .  S
C1518      H1521   1.077       .  S
C1522      C1523   1.400       .  A
C1522      C1776   1.401       .  A
C1522      C1824   1.481       .  S
C1523      C1524   1.406       .  A
C1523      H1528   1.084       .  S
C1524      C1525   1.409       .  A
C1524      C1550   1.491       .  S
C1525      C1775   1.426       .  A
C1525      H1529   1.078       .  S
C1526      C2023   1.424   1_545  A
C1526      C1527   1.410       .  A
C1527      C2020   1.401   1_545  A
C1527      H1530   1.076       .  S
C1531      C1532   1.400       .  A
C1531      C1536   1.400       .  A
C1531      C1573   1.481       .  S
C1532      C1533   1.406       .  A
C1532      H1537   1.084       .  S
C1533      C1534   1.409       .  A
C1534      C1535   1.425       .  A
C1534      H1538   1.078       .  S
C1535      C1536   1.409       .  A
C1535      C1542   1.518       .  S
C1536      H1539   1.075       .  S
C1540      C1541   1.404       .  A
C1540      C1545   1.392       .  A
C1540      C1713   1.461       .  S
C1541      C1542   1.410       .  A
C1541      H1546   1.077       .  S
C1542      C1543   1.425       .  A
C1543      C1544   1.401       .  A
C1543      H1547   1.077       .  S
C1544      C1545   1.400       .  A
C1544      C1551   1.482       .  S
C1545      H1548   1.085       .  S
C1549      C1550   1.409       .  A
C1549      C1554   1.413       .  A
C1550      C1551   1.413       .  A
C1551      C1552   1.408       .  A
C1552      C1553   1.412       .  A
C1553      C1554   1.408       .  A
O1555      C1571   1.264       .  A
O1555     Zn1561   1.961       .  S
C1556      C1605   1.463       .  S
C1556      O1572   1.264       .  A
C1556      O1569   1.278       .  A
O1557      C1819   1.277       .  A
O1557     Cd1813   2.107       .  S
O1558      C1576   1.277       .  A
O1558     Cd1567   2.068       .  S
O1559      C1573   1.277       .  A
O1559     Cd1563   2.069       .  S
O1560      C1571   1.277       .  A
O1560     Cd1563   2.108       .  S
Zn1561     O1572   1.963       .  S
Zn1561     O1574   1.960       .  S
Zn1561     O1566   1.834       .  S
O1562      C1573   1.281       .  A
O1562     Cd1567   2.075       .  S
Cd1563     O1565   2.074       .  S
Cd1563     O1566   1.964       .  S
Cd1564     O2055   2.106   1_545  S
Cd1564     O1568   2.067       .  S
Cd1564     O1577   2.074       .  S
Cd1564     O1566   1.965       .  S
O1565      C1575   1.281       .  A
O1566     Cd1567   1.964       .  S
Cd1567     O1569   2.113       .  S
O1568      C1575   1.277       .  A
C1570      C2085   1.460   1_545  S
C1570      O2055   1.277   1_545  A
C1570      O1574   1.264       .  A
C1571      C1623   1.461       .  S
C1575      C2020   1.480   1_545  S
C1576      O1577   1.281       .  A
C1578      C1579   1.389       .  A
C1578      C1583   1.401       .  A
C1578      C1736   1.461       .  S
C1579      C1829   1.398       .  A
C1579      H1584   1.085       .  S
C1580      C2077   1.398       .  A
C1580      C1581   1.404       .  A
C1580      C2132   1.480       .  S
C1581      C1582   1.426       .  A
C1581      H1585   1.076       .  S
C1582      C2081   1.415       .  A
C1582      C2087   1.523       .  S
C1583      C1831   1.415       .  A
C1583      H1586   1.075       .  S
C1587      C1588   1.402       .  A
C1587      C1592   1.388       .  A
C1587      C1819   1.461       .  S
C1588      C1589   1.415       .  A
C1588      H1593   1.075       .  S
C1589      C1590   1.426       .  A
C1589      C1831   1.523       .  S
C1590      C1591   1.404       .  A
C1590      H1594   1.076       .  S
C1591      C1592   1.397       .  A
C1592      H1595   1.085       .  S
C1596      C1597   1.402       .  A
C1596      C1601   1.389       .  A
C1596      C1737   1.462       .  S
C1597      C1598   1.415       .  A
C1597      H1602   1.075       .  S
C1598      C1599   1.425       .  A
C1598      C1607   1.523       .  S
C1599      C1600   1.404       .  A
C1599      H1603   1.075       .  S
C1600      C1601   1.398       .  A
C1601      H1604   1.085       .  S
C1605      C1606   1.402       .  A
C1605      C1610   1.390       .  A
C1606      C1607   1.416       .  A
C1606      H1611   1.076       .  S
C1607      C1608   1.425       .  A
C1608      C1609   1.403       .  A
C1608      H1612   1.076       .  S
C1609      C1610   1.398       .  A
C1609      C1633   1.479       .  S
C1610      H1613   1.085       .  S
C1614      C1615   1.389       .  A
C1614      C1619   1.401       .  A
C1614      C1722   1.462       .  S
C1615      C1616   1.398       .  A
C1615      H1620   1.085       .  S
C1616      C1617   1.404       .  A
C1616      C1632   1.480       .  S
C1617      C1618   1.426       .  A
C1617      H1621   1.076       .  S
C1618      C1619   1.415       .  A
C1618      C1625   1.523       .  S
C1619      H1622   1.075       .  S
C1623      C1624   1.401       .  A
C1623      C1628   1.389       .  A
C1624      C1625   1.415       .  A
C1624      H1629   1.076       .  S
C1625      C1626   1.426       .  A
C1626      C1627   1.404       .  A
C1627      C1628   1.398       .  A
C1627      C1635   1.480       .  S
C1628      H1631   1.085       .  S
C1632      C1633   1.407       .  A
C1632      C1637   1.406       .  A
C1633      C1634   1.408       .  A
C1634      C1884   1.407       .  A
C1634      C1829   1.480       .  S
C1635      C2132   1.407   1_545  A
C1635      C1636   1.406       .  A
C1636      C2135   1.407   1_545  A
C1637      C1885   1.407       .  A
C1638      C1639   1.404       .  A
C1638      C1643   1.401       .  A
C1638      C1741   1.481       .  S
C1639      C1640   1.407       .  A
C1639      H1644   1.084       .  S
C1640      C1641   1.404       .  A
C1640      C1692   1.491       .  S
C1641      C1642   1.425       .  A
C1641      H1645   1.077       .  S
C1642      C1643   1.407       .  A
C1642      C1651   1.517       .  S
C1643      H1646   1.076       .  S
C1647      C1648   1.400       .  A
C1647      C1652   1.401       .  A
C1647      C1719   1.475       .  S
C1648      C1649   1.406       .  A
C1648      H1902   1.084       .  S
C1649      C1650   1.404       .  A
C1649      C1944   1.489       .  S
C1650      C1651   1.425       .  A
C1650      H1654   1.077       .  S
C1651      C1652   1.406       .  A
C1652      H1655   1.076       .  S
H1653      C2146   1.084       .  S
C1656      C1657   1.401       .  A
C1656      C1910   1.403       .  A
C1656      C1742   1.481       .  S
C1657      C1658   1.407       .  A
C1658      C1659   1.425       .  A
C1658      C1669   1.515       .  S
C1659      C1909   1.402       .  A
C1659      H1912   1.077       .  S
C1660      C2157   1.404   1_545  A
C1660      C1661   1.406       .  A
C1660      C1696   1.491       .  S
C1661      C2154   1.403   1_545  A
C1661      H1664   1.084       .  S
H1663      C2157   1.077       .  S
C1665      C1666   1.400       .  A
C1665      C1718   1.473       .  S
C1666      C1667   1.407       .  A
C1666      H1671   1.084       .  S
C1667      C1668   1.404       .  A
C1667      C1693   1.489       .  S
C1668      H1672   1.077       .  S
C1669      C1670   1.405       .  A
C1670      H1673   1.076       .  S
C1674      C1675   1.400       .  A
C1674      C1679   1.401       .  A
C1674      C1716   1.474       .  S
C1675      C1676   1.406       .  A
C1675      H1680   1.084       .  S
C1676      C1677   1.403       .  A
C1676      C1697   1.488       .  S
C1677      C1678   1.425       .  A
C1677      H1681   1.077       .  S
C1678      C1679   1.406       .  A
C1683      C1684   1.403       .  A
C1683      C1688   1.400       .  A
C1683      C1739   1.481       .  S
C1684      C1685   1.406       .  A
C1684      H1689   1.084       .  S
C1685      C1686   1.403       .  A
C1685      C1694   1.490       .  S
C1686      C1687   1.425       .  A
C1686      H1690   1.077       .  S
C1687      C1688   1.407       .  A
C1692      C1693   1.413       .  A
C1692      C1697   1.412       .  A
C1693      C1694   1.411       .  A
C1694      C1695   1.414       .  A
C1695      C1696   1.411       .  A
C1695      C2147   1.489       .  S
C1696      C1697   1.413       .  A
O1698      C1714   1.263       .  A
C1699      O1715   1.262       .  A
C1699      O1712   1.277       .  A
O1700      C1713   1.277       .  A
O1700     Cd1707   2.108   1_554  S
O1701      C2217   1.275   1_545  A
O1701     Cd1710   2.059       .  S
O1702      C1716   1.275       .  A
O1702     Cd2204   2.061   1_545  S
O1703      C1714   1.277       .  A
O1703     Cd1706   2.108   1_554  S
Zn1704     O1964   1.956       .  S
Zn1704     O1717   1.960       .  S
Zn1704     O1709   1.830   1_554  S
O1705     Cd1710   2.072   1_455  S
Cd1706     O1951   2.059       .  S
Cd1707     O1711   2.058       .  S
Cd1707     O1720   2.071       .  S
Cd1707     O1709   1.960       .  S
O1708      C1718   1.281       .  A
O1709     Cd1959   1.961       .  S
Cd1710     O1712   2.111   1_556  S
Cd1710     O2207   1.960   1_545  S
O1711      C1718   1.274       .  A
C1713      O1717   1.263       .  A
O1715     Zn2202   1.957   1_545  S
C1719      O1950   1.275       .  A
C1719      O1720   1.281       .  A
O1721      C1737   1.264       .  A
O1721     Zn1727   1.960       .  S
C1722      O1735   1.277       .  A
O1723      C1736   1.277       .  A
O1723     Cd1730   2.109       .  S
O1724      C1742   1.281       .  A
O1724     Cd1733   2.074       .  S
O1725     Cd1729   2.076       .  S
O1726      C1737   1.277       .  A
O1726     Cd1729   2.109       .  S
Zn1727     O1738   1.961       .  S
Zn1727     O1740   1.960       .  S
Zn1727     O1732   1.833       .  S
O1728      C1739   1.276       .  A
Cd1729     O1731   2.066       .  S
Cd1729     O1732   1.962       .  S
Cd1730     O1734   2.077       .  S
Cd1730     O1743   2.068       .  S
Cd1730     O1732   1.964       .  S
O1731      C1741   1.276       .  A
O1732     Cd1733   1.963       .  S
O1734      C1741   1.282       .  A
C1736      O1740   1.264       .  A
C1742      O1743   1.277       .  A
C1744      C1994   1.404       .  A
C1744      C1749   1.392       .  A
C1744      C1963   1.462       .  S
C1745      C1746   1.409       .  A
C1745      H1750   1.077       .  S
C1746      C1757   1.518       .  S
C1747      C1995   1.425       .  A
C1747      C1748   1.402       .  A
C1747      H1751   1.077       .  S
C1748      C1749   1.400       .  A
C1748      C1798   1.483       .  S
C1749      H1752   1.085       .  S
C1753      C1754   1.399       .  A
C1753      C1758   1.400       .  A
C1753      C1825   1.480       .  S
C1754      C1755   1.405       .  A
C1754      H1759   1.084       .  S
C1755      C1756   1.408       .  A
C1755      C1801   1.489       .  S
C1756      C1757   1.425       .  A
C1756      H1760   1.078       .  S
C1757      C1758   1.409       .  A
C1758      H1761   1.075       .  S
C1762      C1763   1.391       .  A
C1762      C1767   1.404       .  A
C1762      C1948   1.461       .  S
C1763      C1764   1.400       .  A
C1763      H1768   1.085   1_655  S
C1764      C1765   1.403       .  A
C1765      C1766   1.427       .  A
C1765      H1769   1.077       .  S
C1766      C1767   1.410       .  A
C1766      C1775   1.520       .  S
C1767      H1770   1.077       .  S
C1771      C1772   1.400       .  A
C1771      C2025   1.399       .  A
C1771      C2073   1.482       .  S
C1772      C1773   1.406       .  A
C1772      H1777   1.084       .  S
C1773      C1774   1.408       .  A
C1773      C1799   1.490       .  S
C1774      C2024   1.424       .  A
C1774      H1778   1.078       .  S
C1775      C1776   1.409       .  A
C1776      H1779   1.075       .  S
C1780      C1781   1.401       .  A
C1780      C1785   1.400       .  A
C1780      C1822   1.482       .  S
C1781      C1782   1.406       .  A
C1781      H1786   1.084       .  S
C1782      C1783   1.408       .  A
C1783      C1784   1.424       .  A
C1783      H1787   1.078       .  S
C1784      C1785   1.409       .  A
C1784      C1791   1.518       .  S
C1785      H1788   1.076       .  S
C1789      C1790   1.404       .  A
C1789      C1794   1.391       .  A
C1789      C1962   1.461       .  S
C1790      C1791   1.410       .  A
C1790      H1795   1.077       .  S
C1791      C1792   1.425       .  A
C1792      C1793   1.402       .  A
C1792      H1796   1.077       .  S
C1793      C1794   1.399       .  A
C1793      C1800   1.482       .  S
C1794      H1797   1.085       .  S
C1798      C1799   1.408       .  A
C1798      C1803   1.413       .  A
C1799      C1800   1.412       .  A
C1800      C1801   1.409       .  A
C1801      C1802   1.413       .  A
C1802      C1803   1.409       .  A
O1804      C1820   1.264       .  A
O1804     Zn1810   1.959       .  S
C1805      C1854   1.462       .  S
C1805      O1821   1.264       .  A
C1805      O1818   1.278       .  A
O1806      C2068   1.278       .  A
O1806     Cd2062   2.112       .  S
O1807      C1825   1.277       .  A
O1807     Cd1816   2.067       .  S
O1808      C1822   1.277       .  A
O1808     Cd1812   2.069       .  S
O1809      C1820   1.278       .  A
O1809     Cd1812   2.109       .  S
Zn1810     O1821   1.961       .  S
Zn1810     O1823   1.961       .  S
Zn1810     O1815   1.834       .  S
O1811      C1822   1.281       .  A
O1811     Cd1816   2.077       .  S
Cd1812     O1814   2.074       .  S
Cd1812     O1815   1.964       .  S
Cd1813     O1817   2.069       .  S
Cd1813     O1826   2.072       .  S
Cd1813     O1815   1.965       .  S
O1814      C1824   1.281       .  A
O1815     Cd1816   1.965       .  S
Cd1816     O1818   2.113       .  S
O1817      C1824   1.277       .  A
C1819      O1823   1.264       .  A
C1820      C1872   1.461       .  S
C1825      O1826   1.281       .  A
C1827      C1828   1.388       .  A
C1827      C1832   1.401       .  A
C1827      C1985   1.460       .  S
C1828      C2078   1.398       .  A
C1828      H1833   1.085       .  S
C1829      C1830   1.405       .  A
C1830      C1831   1.426       .  A
C1830      H1834   1.076       .  S
C1832      C2080   1.414       .  A
C1832      H1835   1.075       .  S
C1836      C1837   1.402       .  A
C1836      C1841   1.391       .  A
C1836      C2068   1.463       .  S
C1837      C1838   1.415       .  A
C1837      H1842   1.076       .  S
C1838      C1839   1.425       .  A
C1838      C2080   1.523       .  S
C1839      C1840   1.403       .  A
C1839      H1843   1.076       .  S
C1840      C1841   1.399       .  A
C1841      H1844   1.085       .  S
C1845      C1846   1.401       .  A
C1845      C1850   1.388       .  A
C1845      C1986   1.460       .  S
C1846      C1847   1.414       .  A
C1846      H1851   1.075       .  S
C1847      C1848   1.426       .  A
C1847      C1856   1.523       .  S
C1848      C1849   1.404       .  A
C1848      H1852   1.075       .  S
C1849      C1850   1.397       .  A
C1850      H1853   1.085       .  S
C1854      C1855   1.402       .  A
C1854      C1859   1.389       .  A
C1855      C1856   1.415       .  A
C1855      H1860   1.076       .  S
C1856      C1857   1.426       .  A
C1857      C1858   1.405       .  A
C1857      H1861   1.076       .  S
C1858      C1859   1.398       .  A
C1858      C1882   1.481       .  S
C1859      H1862   1.085       .  S
C1863      C1864   1.389       .  A
C1863      C1868   1.402       .  A
C1863      C1971   1.461       .  S
C1864      C1865   1.398       .  A
C1864      H1869   1.085       .  S
C1865      C1866   1.404       .  A
C1865      C1881   1.481       .  S
C1866      C1867   1.426       .  A
C1866      H1870   1.075       .  S
C1867      C1868   1.415       .  A
C1867      C1874   1.524       .  S
C1868      H1871   1.076       .  S
C1872      C1873   1.401       .  A
C1872      C1877   1.389       .  A
C1873      C1874   1.415       .  A
C1873      H1878   1.075       .  S
C1874      C1875   1.426       .  A
C1875      C1876   1.406       .  A
C1876      C1877   1.398       .  A
C1876      C1884   1.481       .  S
C1877      H1880   1.085       .  S
C1881      C1882   1.407       .  A
C1881      C1886   1.408       .  A
C1882      C1883   1.407       .  A
C1883      C2133   1.407       .  A
C1883      C2078   1.481       .  S
C1884      C1885   1.407       .  A
C1886      C2134   1.407       .  A
C1887      C1888   1.403       .  A
C1887      C1892   1.401       .  A
C1887      C1990   1.481       .  S
C1888      C1889   1.406       .  A
C1888      H1893   1.084       .  S
C1889      C1890   1.402       .  A
C1889      C1941   1.489       .  S
C1890      C1891   1.425       .  A
C1890      H1894   1.077       .  S
C1891      C1892   1.407       .  A
C1891      C1900   1.515       .  S
C1892      H1895   1.076       .  S
C1896      C1897   1.400       .  A
C1896      C1901   1.399       .  A
C1896      C1968   1.473       .  S
C1897      C1898   1.407       .  A
C1897      H2151   1.084       .  S
C1898      C1899   1.404       .  A
C1898      C2193   1.489       .  S
C1899      C1900   1.425       .  A
C1899      H1903   1.077       .  S
C1900      C1901   1.405       .  A
C1901      H1904   1.076       .  S
C1905      C1906   1.401       .  A
C1905      C2159   1.402       .  A
C1905      C1991   1.480       .  S
C1906      C1907   1.407       .  A
C1907      C1908   1.424       .  A
C1907      C1918   1.515       .  S
C1908      C2158   1.403       .  A
C1908      H2161   1.077       .  S
C1909      C1910   1.406       .  A
C1909      C1945   1.489       .  S
C1910      H1913   1.084       .  S
C1914      C1915   1.400       .  A
C1914      C1967   1.474       .  S
C1915      C1916   1.406       .  A
C1915      H1920   1.084       .  S
C1916      C1917   1.403       .  A
C1916      C1942   1.488       .  S
C1917      H1921   1.077       .  S
C1918      C1919   1.406       .  A
C1919      H1922   1.077       .  S
C1923      C1924   1.400       .  A
C1923      C1928   1.399       .  A
C1923      C1965   1.474       .  S
C1924      C1925   1.407       .  A
C1924      H1929   1.084       .  S
C1925      C1926   1.404       .  A
C1925      C1946   1.490       .  S
C1926      C1927   1.425       .  A
C1926      H1930   1.077       .  S
C1927      C1928   1.405       .  A
C1932      C1933   1.403       .  A
C1932      C1937   1.401       .  A
C1932      C1988   1.480       .  S
C1933      C1934   1.406       .  A
C1933      H1938   1.084       .  S
C1934      C1935   1.402       .  A
C1934      C1943   1.489       .  S
C1935      C1936   1.425       .  A
C1935      H1939   1.077       .  S
C1936      C1937   1.406       .  A
C1941      C1942   1.413       .  A
C1941      C1946   1.411       .  A
C1942      C1943   1.410       .  A
C1943      C1944   1.413       .  A
C1944      C1945   1.411       .  A
C1945      C1946   1.413       .  A
O1947      C1963   1.263       .  A
C1948      O1964   1.263       .  A
C1948      O1961   1.278       .  A
O1949      C1962   1.278       .  A
O1949     Cd1956   2.111   1_554  S
O1950     Cd1959   2.063       .  S
O1951      C1965   1.275       .  A
O1952      C1963   1.278       .  A
O1952     Cd1955   2.111   1_554  S
Zn1953     O2213   1.959       .  S
Zn1953     O1966   1.955       .  S
Zn1953     O1958   1.829   1_554  S
O1954     Cd1959   2.072   1_455  S
Cd1955     O2200   2.058       .  S
Cd1956     O1960   2.060       .  S
Cd1956     O1969   2.073       .  S
Cd1956     O1958   1.960       .  S
O1957      C1967   1.281       .  A
O1958     Cd2208   1.961       .  S
Cd1959     O1961   2.113   1_556  S
O1960      C1967   1.275       .  A
C1962      O1966   1.263       .  A
C1968      O2199   1.274       .  A
C1968      O1969   1.281       .  A
O1970      C1986   1.264       .  A
O1970     Zn1976   1.961       .  S
C1971      O1984   1.277       .  A
O1972      C1985   1.277       .  A
O1972     Cd1979   2.107       .  S
O1973      C1991   1.281       .  A
O1973     Cd1982   2.073       .  S
O1974     Cd1978   2.074       .  S
O1975      C1986   1.277       .  A
O1975     Cd1978   2.105       .  S
Zn1976     O1987   1.961       .  S
Zn1976     O1989   1.957       .  S
Zn1976     O1981   1.831       .  S
O1977      C1988   1.276       .  A
Cd1978     O1980   2.068       .  S
Cd1978     O1981   1.962       .  S
Cd1979     O1983   2.074       .  S
Cd1979     O1992   2.067       .  S
Cd1979     O1981   1.962       .  S
O1980      C1990   1.277       .  A
O1981     Cd1982   1.963       .  S
O1983      C1990   1.281       .  A
C1985      O1989   1.263       .  A
C1991      O1992   1.277       .  A
C1993      C1998   1.391       .  A
C1993      C2212   1.460       .  S
C1994      C1995   1.410       .  A
C1994      H1999   1.077       .  S
C1995      C2006   1.518       .  S
C1996      C1997   1.401       .  A
C1996      H2000   1.077       .  S
C1997      C1998   1.400       .  A
C1997      C2047   1.481       .  S
C1998      H2001   1.085       .  S
C2002      C2003   1.400       .  A
C2002      C2007   1.400       .  A
C2002      C2074   1.481       .  S
C2003      C2004   1.405       .  A
C2003      H2008   1.084       .  S
C2004      C2005   1.409       .  A
C2004      C2050   1.490       .  S
C2005      C2006   1.425       .  A
C2005      H2009   1.078       .  S
C2006      C2007   1.409       .  A
C2007      H2010   1.076       .  S
C2011      C2012   1.392       .  A
C2011      C2016   1.404       .  A
C2011      C2197   1.460       .  S
C2012      C2013   1.400       .  A
C2012      H2017   1.085   1_655  S
C2013      C2014   1.400       .  A
C2014      C2015   1.424       .  A
C2014      H2018   1.077       .  S
C2015      C2016   1.410       .  A
C2015      C2024   1.516       .  S
C2016      H2019   1.077       .  S
C2020      C2021   1.399       .  A
C2021      C2022   1.405       .  A
C2021      H2026   1.084       .  S
C2022      C2023   1.408       .  A
C2022      C2048   1.489       .  S
C2023      H2027   1.078       .  S
C2024      C2025   1.409       .  A
C2025      H2028   1.076       .  S
C2029      C2030   1.400       .  A
C2029      C2034   1.400       .  A
C2029      C2071   1.481       .  S
C2030      C2031   1.406       .  A
C2030      H2035   1.084       .  S
C2031      C2032   1.409       .  A
C2032      C2033   1.425       .  A
C2032      H2036   1.078       .  S
C2033      C2034   1.409       .  A
C2033      C2040   1.517       .  S
C2034      H2037   1.076       .  S
C2038      C2039   1.404       .  A
C2038      C2043   1.392       .  A
C2038      C2211   1.461       .  S
C2039      C2040   1.409       .  A
C2039      H2044   1.077       .  S
C2040      C2041   1.424       .  A
C2041      C2042   1.402       .  A
C2041      H2045   1.077       .  S
C2042      C2043   1.400       .  A
C2042      C2049   1.482       .  S
C2043      H2046   1.085       .  S
C2047      C2048   1.408       .  A
C2047      C2052   1.412       .  A
C2048      C2049   1.412       .  A
C2049      C2050   1.408       .  A
C2050      C2051   1.413       .  A
C2051      C2052   1.408       .  A
O2053      C2069   1.265       .  A
O2053     Zn2059   1.964       .  S
C2054      C2103   1.461       .  S
C2054      O2070   1.265       .  A
C2054      O2067   1.278       .  A
O2056      C2074   1.277       .  A
O2056     Cd2065   2.068       .  S
O2057      C2071   1.277       .  A
O2057     Cd2061   2.068       .  S
O2058      C2069   1.278       .  A
O2058     Cd2061   2.110       .  S
Zn2059     O2070   1.961       .  S
Zn2059     O2072   1.964       .  S
Zn2059     O2064   1.834       .  S
O2060      C2071   1.281       .  A
O2060     Cd2065   2.074       .  S
Cd2061     O2063   2.076       .  S
Cd2061     O2064   1.966       .  S
Cd2062     O2066   2.069       .  S
Cd2062     O2075   2.073       .  S
Cd2062     O2064   1.966       .  S
O2063      C2073   1.281       .  A
O2064     Cd2065   1.966       .  S
Cd2065     O2067   2.108       .  S
O2066      C2073   1.277       .  A
C2068      O2072   1.264       .  A
C2069      C2121   1.462       .  S
C2074      O2075   1.281       .  A
C2076      C2077   1.389       .  A
C2076      C2081   1.401       .  A
C2076      C2234   1.462       .  S
C2077      H2082   1.085       .  S
C2078      C2079   1.406       .  A
C2079      C2080   1.426       .  A
C2079      H2083   1.076       .  S
C2081      H2084   1.075       .  S
C2085      C2086   1.401       .  A
C2085      C2090   1.388       .  A
C2086      C2087   1.415       .  A
C2086      H2091   1.075       .  S
C2087      C2088   1.426       .  A
C2088      C2089   1.404       .  A
C2088      H2092   1.075       .  S
C2089      C2090   1.398       .  A
C2090      H2093   1.085       .  S
C2094      C2095   1.401       .  A
C2094      C2099   1.389       .  A
C2094      C2235   1.461       .  S
C2095      C2096   1.414       .  A
C2095      H2100   1.075       .  S
C2096      C2097   1.427       .  A
C2096      C2105   1.523       .  S
C2097      C2098   1.405       .  A
C2097      H2101   1.076       .  S
C2098      C2099   1.399       .  A
C2099      H2102   1.085       .  S
C2103      C2104   1.401       .  A
C2103      C2108   1.389       .  A
C2104      C2105   1.414       .  A
C2104      H2109   1.076       .  S
C2105      C2106   1.426       .  A
C2106      C2107   1.404       .  A
C2106      H2110   1.076       .  S
C2107      C2108   1.398       .  A
C2107      C2131   1.480       .  S
C2108      H2111   1.085       .  S
C2112      C2113   1.388       .  A
C2112      C2117   1.401       .  A
C2112      C2220   1.462       .  S
C2113      C2114   1.398       .  A
C2113      H2118   1.085       .  S
C2114      C2115   1.404       .  A
C2114      C2130   1.480       .  S
C2115      C2116   1.425       .  A
C2115      H2119   1.076       .  S
C2116      C2117   1.415       .  A
C2116      C2123   1.523       .  S
C2117      H2120   1.075       .  S
C2121      C2122   1.402       .  A
C2121      C2126   1.390       .  A
C2122      C2123   1.415       .  A
C2122      H2127   1.076       .  S
C2123      C2124   1.425       .  A
C2124      C2125   1.403       .  A
C2125      C2126   1.398       .  A
C2125      C2133   1.479       .  S
C2126      H2129   1.085       .  S
C2130      C2131   1.407       .  A
C2130      C2135   1.407       .  A
C2131      C2132   1.407       .  A
C2133      C2134   1.408       .  A
C2136      C2137   1.402       .  A
C2136      C2141   1.401       .  A
C2136      C2239   1.480       .  S
C2137      C2138   1.405       .  A
C2137      H2142   1.084       .  S
C2138      C2139   1.403       .  A
C2138      C2190   1.489       .  S
C2139      C2140   1.425       .  A
C2139      H2143   1.077       .  S
C2140      C2141   1.407       .  A
C2140      C2149   1.515       .  S
C2141      H2144   1.076       .  S
C2145      C2146   1.400   1_565  A
C2145      C2150   1.400       .  A
C2145      C2217   1.473       .  S
C2146      C2147   1.406       .  A
C2147      C2148   1.404   1_545  A
C2148      C2149   1.425       .  A
C2148      H2152   1.077       .  S
C2149      C2150   1.405       .  A
C2150      H2153   1.077       .  S
C2154      C2155   1.400       .  A
C2154      C2240   1.480       .  S
C2155      C2156   1.407       .  A
C2156      C2157   1.426       .  A
C2156      C2167   1.517       .  S
C2158      C2159   1.406       .  A
C2158      C2194   1.488       .  S
C2159      H2162   1.084       .  S
C2163      C2164   1.399       .  A
C2163      C2216   1.474       .  S
C2164      C2165   1.406       .  A
C2164      H2169   1.084       .  S
C2165      C2166   1.404       .  A
C2165      C2191   1.488       .  S
C2166      H2170   1.077       .  S
C2167      C2168   1.406       .  A
C2168      H2171   1.076       .  S
C2172      C2173   1.399       .  A
C2172      C2177   1.400       .  A
C2172      C2214   1.473       .  S
C2173      C2174   1.406       .  A
C2173      H2178   1.084       .  S
C2174      C2175   1.404       .  A
C2174      C2195   1.489       .  S
C2175      C2176   1.425       .  A
C2175      H2179   1.077       .  S
C2176      C2177   1.405       .  A
C2181      C2182   1.402       .  A
C2181      C2186   1.400       .  A
C2181      C2237   1.480       .  S
C2182      C2183   1.406       .  A
C2182      H2187   1.084       .  S
C2183      C2184   1.403       .  A
C2183      C2192   1.489       .  S
C2184      C2185   1.425       .  A
C2184      H2188   1.077       .  S
C2185      C2186   1.407       .  A
C2190      C2191   1.412       .  A
C2190      C2195   1.410       .  A
C2191      C2192   1.410       .  A
C2192      C2193   1.413       .  A
C2193      C2194   1.411       .  A
C2194      C2195   1.413       .  A
O2196      C2212   1.263       .  A
C2197      O2213   1.263       .  A
C2197      O2210   1.277       .  A
O2198      C2211   1.277       .  A
O2198     Cd2205   2.109   1_554  S
O2199     Cd2208   2.059       .  S
O2200      C2214   1.275       .  A
O2201      C2212   1.278       .  A
O2201     Cd2204   2.109   1_554  S
Zn2202     O2215   1.959       .  S
Zn2202     O2207   1.829   1_554  S
O2203     Cd2208   2.069   1_455  S
Cd2205     O2209   2.060       .  S
Cd2205     O2218   2.070       .  S
Cd2205     O2207   1.961       .  S
O2206      C2216   1.281       .  A
Cd2208     O2210   2.107   1_556  S
O2209      C2216   1.275       .  A
C2211      O2215   1.263       .  A
C2217      O2218   1.281       .  A
O2219      C2235   1.264       .  A
O2219     Zn2225   1.959       .  S
C2220      O2233   1.277       .  A
O2221      C2234   1.277       .  A
O2221     Cd2228   2.108       .  S
O2222      C2240   1.282       .  A
O2222     Cd2231   2.076       .  S
O2223     Cd2227   2.076       .  S
O2224      C2235   1.277       .  A
O2224     Cd2227   2.108       .  S
Zn2225     O2236   1.961       .  S
Zn2225     O2238   1.962       .  S
Zn2225     O2230   1.831       .  S
O2226      C2237   1.276       .  A
Cd2227     O2229   2.065       .  S
Cd2227     O2230   1.964       .  S
Cd2228     O2232   2.072       .  S
Cd2228     O2241   2.063       .  S
Cd2228     O2230   1.962       .  S
O2229      C2239   1.277       .  A
O2230     Cd2231   1.963       .  S
O2232      C2239   1.281       .  A
C2234      O2238   1.264       .  A
C2240      O2241   1.276       .  A
