geometry optimzed in LAMMPS
_audit_creation_date              2020-11-30 
_audit_creation_method            'lammps2cif' 
_symmetry_space_group_name_H-M    'P1' 
_symmetry_Int_Tables_number       1 
_symmetry_cell_setting            triclinic 
loop_ 
_symmetry_equiv_pos_as_xyz 
  x,y,z 
_cell_length_a                    72.75184304 
_cell_length_b                    34.510985526528636 
_cell_length_c                    37.00919418742702 
_cell_angle_alpha                 90.12676610588362 
_cell_angle_beta                  90.25047136873101 
_cell_angle_gamma                 89.16789972726546 
loop_ 
_atom_site_label 
_atom_site_type_symbol 
_atom_site_fract_x 
_atom_site_fract_y 
_atom_site_fract_z 
_atom_site_charge 
O1          O  0.63392499  0.90777250  0.66322722    -0.56800
C2          C  0.63475470  0.99210146  0.60063526     0.75900
O3          O  0.62541961  0.02929959  0.71047085    -0.57900
C4          C  0.64180762  0.89325372  0.69067701     0.75800
C5          C  0.68133796  0.98985399  0.68564057     0.78200
Cd6        Cd  0.64180108  0.97535183  0.67624426     1.37500
O7          O  0.63459239  0.95811680  0.61340629    -0.56800
O8          O  0.67365496  0.98620321  0.65514916    -0.55600
C9          C  0.61095653  0.01039420  0.71678725     0.78200
O10         O  0.67050507  0.98945400  0.71235468    -0.57900
O11         O  0.63759091  0.01874226  0.62346945    -0.56400
O12         O  0.64924591  0.91701134  0.71209145    -0.56400
O13         O  0.61117023  0.97612559  0.70500292    -0.55600
O14         O  0.63086264  0.53743260  0.62074147    -0.56800
C15         C  0.64422132  0.60210913  0.69173237     0.75900
O16         O  0.63172594  0.49563856  0.73698073    -0.57900
C17         C  0.63615596  0.50748141  0.60372760     0.75800
C18         C  0.68285802  0.49814569  0.68680764     0.78200
Cd19       Cd  0.64436037  0.51995387  0.67906636     1.37500
O20         O  0.64486704  0.58755453  0.66036740    -0.56800
O21         O  0.67067876  0.47233871  0.68511414    -0.55600
C22         C  0.61569523  0.48965690  0.72514742     0.78200
O23         O  0.67695384  0.53270265  0.68613123    -0.57900
O24         O  0.64325486  0.57828862  0.71753899    -0.56400
O25         O  0.64445412  0.48197818  0.62245052    -0.56400
O26         O  0.61331438  0.49557785  0.69175921    -0.55600
O27         O  0.62789706  0.09256645  0.25692506    -0.56800
C28         C  0.63741198  0.01809750  0.32950007     0.75900
O29         O  0.62286734  0.02005008  0.19992873    -0.57900
C30         C  0.64069305  0.11132117  0.24233542     0.75800
C31         C  0.68114455  0.01028829  0.23776719     0.78200
Cd32       Cd  0.64283084  0.02830762  0.25291573     1.37500
O33         O  0.62914520  0.04466997  0.31208912    -0.56800
O34         O  0.67553487  0.01973835  0.26887044    -0.55600
C35         C  0.61596922  0.98786000  0.20801810     0.78200
O36         O  0.66883542  0.00660012  0.21377046    -0.57900
O37         O  0.64711862  0.99472872  0.31103771    -0.56400
O38         O  0.65439735  0.09136395  0.23214231    -0.56400
O39         O  0.62180427  0.97302629  0.23719977    -0.55600
O40         O  0.63368797  0.42601382  0.22187947    -0.56800
C41         C  0.62972458  0.50179040  0.33276615     0.75900
O42         O  0.66896642  0.50106405  0.27108210    -0.57900
C43         C  0.63732305  0.40298658  0.24753651     0.75800
C44         C  0.60483764  0.52112170  0.22242735     0.78200
Cd45       Cd  0.63659772  0.48555339  0.25810617     1.37500
O46         O  0.62438219  0.47124883  0.31738893    -0.56800
O47         O  0.60499411  0.48738589  0.23536327    -0.55600
C48         C  0.67424916  0.50217494  0.23863956     0.78200
O49         O  0.61978341  0.53930875  0.22562117    -0.57900
O50         O  0.63773030  0.52622947  0.31300191    -0.56400
O51         O  0.64125873  0.41823816  0.27760753    -0.56400
O52         O  0.66183122  0.49821726  0.21492478    -0.55600
C53         C  0.50122819  0.11399191  0.85862572    -0.01400
C54         C  0.50595012  0.90085910  0.05709911    -0.01400
C55         C  0.49807982  0.41518752  0.85574226    -0.01400
C56         C  0.49277558  0.60854378  0.07231905    -0.01400
O57         O  0.36780866  0.92826539  0.71510957    -0.56800
C58         C  0.36191099  0.98967870  0.60344830     0.75900
O59         O  0.32701131  0.97412324  0.70991498    -0.57900
C60         C  0.36138295  0.90410414  0.69279094     0.75800
C61         C  0.38631327  0.02842948  0.71757045     0.78200
Cd62       Cd  0.35697315  0.98603457  0.68074113     1.37500
O63         O  0.36922130  0.96322058  0.62257942    -0.56800
O64         O  0.38503659  0.02657720  0.68360947    -0.55600
C65         C  0.31813431  0.00213262  0.69605980     0.78200
O66         O  0.37330224  0.01293768  0.73463599    -0.57900
O67         O  0.35301962  0.01562863  0.62051497    -0.56400
O68         O  0.35323536  0.91808390  0.66544563    -0.56400
O69         O  0.32770625  0.02505406  0.67764308    -0.55600
O70         O  0.36570589  0.60288772  0.64208859    -0.56800
C71         C  0.36615905  0.51521961  0.57859766     0.75900
O72         O  0.39308644  0.52892621  0.67689010    -0.57900
C73         C  0.36404907  0.61440651  0.67445393     0.75800
C74         C  0.32196292  0.52420721  0.66616483     0.78200
Cd75       Cd  0.36121471  0.53413129  0.65429467     1.37500
O76         O  0.37155699  0.54657199  0.59228608    -0.56800
O77         O  0.33348894  0.49817419  0.67545620    -0.55600
C78         C  0.39135762  0.49857958  0.69540775     0.78200
O79         O  0.32863004  0.55460726  0.65295209    -0.57900
O80         O  0.35886416  0.49167805  0.60018413    -0.56400
O81         O  0.36128797  0.58831793  0.69776279    -0.56400
O82         O  0.37566713  0.48316322  0.69448745    -0.55600
O83         O  0.37262370  0.01783874  0.31503237    -0.56800
C84         C  0.36580336  0.07942064  0.24275511     0.75900
O85         O  0.38528529  0.94290066  0.24012789    -0.57900
C86         C  0.36925897  0.98671894  0.33146679     0.75800
C87         C  0.32313578  0.98489625  0.24384139     0.78200
Cd88       Cd  0.36262178  0.99732937  0.25526806     1.37500
O89         O  0.35475971  0.05864032  0.22498654    -0.56800
O90         O  0.32998346  0.99559962  0.27356350    -0.55600
C91         C  0.39231122  0.96009398  0.21348649     0.78200
O92         O  0.33469442  0.97704295  0.21928604    -0.57900
O93         O  0.37552435  0.06189467  0.26608025    -0.56400
O94         O  0.36332405  0.95917171  0.31206508    -0.56400
O95         O  0.38477026  0.99215568  0.20553809    -0.55600
O96         O  0.35814683  0.43509752  0.29682861    -0.56800
C97         C  0.35675705  0.37064635  0.22640168     0.75900
O98         O  0.32451480  0.44743995  0.19458309    -0.57900
C99         C  0.36014276  0.46862467  0.30966611     0.75800
C100        C  0.38117954  0.49211980  0.19385122     0.78200
Cd101      Cd  0.35230030  0.45355534  0.23381170     1.37500
O102        O  0.34887349  0.38661447  0.25307857    -0.56800
O103        O  0.38395890  0.46220229  0.21272311    -0.55600
C104        C  0.31394542  0.46881259  0.21318233     0.78200
O105        O  0.36478630  0.50496379  0.19329360    -0.57900
O106        O  0.36220754  0.39341326  0.20204318    -0.56400
O107        O  0.35831497  0.49612767  0.28723731    -0.56400
O108        O  0.32132790  0.48425503  0.24057667    -0.55600
O109        O  0.14007405  0.09497130  0.65014767    -0.56800
C110        C  0.13605292  0.02249761  0.59420770     0.75900
O111        O  0.16897830  0.98546508  0.67022561    -0.57900
C112        C  0.13744158  0.11153352  0.68023205     0.75800
C113        C  0.10925767  0.99160772  0.70725827     0.78200
Cd114      Cd  0.14052172  0.02825137  0.67156096     1.37500
O115        O  0.13087229  0.05193091  0.61202231    -0.56800
O116        O  0.11200024  0.98857467  0.67375704    -0.55600
C117        C  0.17908898  0.00833004  0.68780714     0.78200
O118        O  0.12140534  0.00975630  0.72464721    -0.57900
O119        O  0.14310327  0.99496637  0.61253416    -0.56400
O120        O  0.13593502  0.08907521  0.70699170    -0.56400
O121        O  0.17100408  0.03814466  0.70003202    -0.55600
O122        O  0.14571433  0.51201084  0.57858455    -0.56800
C123        C  0.14505173  0.40129909  0.66118906     0.75900
O124        O  0.17467259  0.52061904  0.63119522    -0.57900
C125        C  0.14191556  0.48147388  0.56120293     0.75800
C126        C  0.11712878  0.52448236  0.67560868     0.78200
Cd127      Cd  0.14650194  0.48147454  0.63918771     1.37500
O128        O  0.15721764  0.41395063  0.64023212    -0.56800
O129        O  0.11450605  0.50352562  0.64814516    -0.55600
C130        C  0.18379417  0.50456704  0.65640648     0.78200
O131        O  0.13373350  0.52714751  0.68563026    -0.57900
O132        O  0.13336541  0.42604012  0.67234731    -0.56400
O133        O  0.13977248  0.45151527  0.58010905    -0.56400
O134        O  0.17524708  0.47980899  0.67466466    -0.55600
O135        O  0.13552667  0.96077797  0.31158153    -0.56800
C136        C  0.13662090  0.89101004  0.23316273     0.75900
O137        O  0.13007240  0.00216567  0.19431063    -0.57900
C138        C  0.13995666  0.99387012  0.32322184     0.67800
C139        C  0.18381809  0.97644565  0.23553826     0.78200
Cd140      Cd  0.14437389  0.97084979  0.24856983     1.37500
O141        O  0.13911835  0.90343456  0.26499363    -0.56800
O142        O  0.17599855  0.94593832  0.24546400    -0.55600
C143        C  0.11434584  0.00646018  0.20853630     0.78200
O144        O  0.17324826  0.00556907  0.23067760    -0.57900
O145        O  0.13749936  0.91586174  0.20820479    -0.56400
O146        O  0.14633812  0.01686028  0.29996416    -0.56400
O147        O  0.11334439  0.99769610  0.24151585    -0.55600
O148        O  0.12896976  0.58484859  0.23355184    -0.56800
C149        C  0.13632927  0.50266139  0.28911807     0.75900
O150        O  0.12014778  0.50765780  0.15609975    -0.57900
C151        C  0.13420966  0.60253595  0.20562567     0.75800
C152        C  0.17613002  0.50050938  0.19593905     0.78200
Cd153      Cd  0.13794610  0.51988068  0.21253798     1.37500
O154        O  0.12866508  0.53193717  0.27488621    -0.56800
O155        O  0.17055868  0.53441214  0.20350526    -0.55600
C156        C  0.10668943  0.49132431  0.17072826     0.78200
O157        O  0.16379472  0.47497340  0.19446379    -0.57900
O158        O  0.14468292  0.48006468  0.26745796    -0.56400
O159        O  0.14085913  0.58181503  0.18054116    -0.56400
O160        O  0.10838666  0.48552913  0.20429083    -0.55600
C161        C  0.00186928  0.87701250  0.84941330    -0.01400
C162        C  0.00184259  0.08465404  0.05526236    -0.01400
C163        C  0.00369670  0.57643885  0.82813897    -0.01400
C164        C  0.99513571  0.37910252  0.04015624    -0.01400
O165        O  0.85218964  0.06626872  0.64089716    -0.56800
C166        C  0.86680639  0.98705866  0.58300381     0.75900
O167        O  0.87518920  0.95162192  0.70240092    -0.57900
C168        C  0.86020515  0.08361242  0.66640471     0.75800
C169        C  0.82128834  0.98531287  0.67624407     0.78200
Cd170      Cd  0.86005245  0.00011117  0.65918709     1.37500
O171        O  0.86829217  0.01982488  0.59792286    -0.56800
O172        O  0.83122532  0.00726659  0.69534100    -0.55600
C173        C  0.89160189  0.96133366  0.69583662     0.78200
O174        O  0.82975045  0.96703695  0.65159319    -0.57900
O175        O  0.86240454  0.95971736  0.60382107    -0.56400
O176        O  0.86832994  0.06227704  0.68953431    -0.56400
O177        O  0.89299463  0.98856717  0.67343711    -0.55600
O178        O  0.86897058  0.39173736  0.62528871    -0.56800
C179        C  0.85962562  0.47142522  0.56553178     0.75900
O180        O  0.83024823  0.49826605  0.64464104    -0.57900
C181        C  0.86311751  0.37531252  0.65354209     0.75800
C182        C  0.88947757  0.48969303  0.68604373     0.78200
Cd183      Cd  0.85892964  0.45766937  0.64327113     1.37500
O184        O  0.86808923  0.49308521  0.58743823    -0.56800
O185        O  0.87490375  0.50939027  0.68042324    -0.55600
C186        C  0.82085328  0.47511912  0.66318396     0.78200
O187        O  0.88988039  0.45665030  0.67146999    -0.57900
O188        O  0.85111122  0.44365678  0.57961601    -0.56400
O189        O  0.85558561  0.39735563  0.67663081    -0.56400
O190        O  0.82960740  0.44603520  0.67531764    -0.55600
O191        O  0.86891005  0.94822592  0.29510707    -0.56800
C192        C  0.86125352  0.88681521  0.22050764     0.75900
O193        O  0.82629436  0.95628032  0.21569062    -0.57900
C194        C  0.86362147  0.97832637  0.31182926     0.75800
C195        C  0.88803145  0.00270893  0.19550420     0.78200
Cd196      Cd  0.85802810  0.96859833  0.23538905     1.37500
O197        O  0.86488933  0.91179484  0.19672812    -0.56800
O198        O  0.88968851  0.99241650  0.22810192    -0.55600
C199        C  0.81948211  0.98944551  0.22222027     0.78200
O200        O  0.87205470  0.00012590  0.18221869    -0.57900
O201        O  0.85589111  0.90001760  0.25066064    -0.56400
O202        O  0.85630693  0.00487876  0.29284054    -0.56400
O203        O  0.83087710  0.01438617  0.23289288    -0.55600
O204        O  0.86637964  0.57675134  0.23486615    -0.56800
C205        C  0.85446079  0.50127400  0.29351661     0.75900
O206        O  0.82191502  0.48166373  0.21429412    -0.57900
C207        C  0.86230164  0.59590772  0.20686039     0.75800
C208        C  0.87945960  0.47200019  0.17509607     0.78200
Cd209      Cd  0.85211294  0.51613197  0.21678778     1.37500
O210        O  0.85562454  0.53483041  0.28012362    -0.56800
O211        O  0.88091190  0.47868547  0.20847484    -0.55600
C212        C  0.81223198  0.51182041  0.20834488     0.78200
O213        O  0.86488797  0.48482556  0.16023136    -0.57900
O214        O  0.85230646  0.47392355  0.27109612    -0.56400
O215        O  0.85423682  0.57722390  0.18203901    -0.56400
O216        O  0.82116330  0.54242895  0.20390273    -0.55600
C217        C  0.87720526  0.69962784  0.22680651    -0.10800
C218        C  0.86587302  0.72016212  0.20270663     0.11800
C219        C  0.85560061  0.69995365  0.17646384    -0.02600
C220        C  0.85554549  0.65922342  0.17772999    -0.05400
C221        C  0.86559201  0.63833456  0.20405891    -0.16100
C222        C  0.87734364  0.65888827  0.22806588     0.02800
C223        C  0.86440755  0.76281780  0.20693003     0.12700
C224        C  0.84467300  0.72144758  0.14753072     0.63300
H225        H  0.84705611  0.64348634  0.15879922     0.12800
C226        C  0.88989843  0.63859776  0.25522285     0.55500
H227        H  0.88536370  0.71604512  0.24583793     0.08500
C228        C  0.85252715  0.77992931  0.23278060    -0.05300
C229        C  0.85188972  0.82046119  0.23576909    -0.06000
C230        C  0.86274353  0.84434485  0.21404739    -0.15600
C231        C  0.87487655  0.82700221  0.18842996    -0.01200
C232        C  0.87548916  0.78628069  0.18551061    -0.08700
C233        C  0.84056092  0.75548291  0.25714697     0.65600
H234        H  0.84274562  0.83389048  0.25527218     0.11000
C235        C  0.88746139  0.85084750  0.16486535     0.64000
H236        H  0.88466182  0.77222817  0.16642174     0.08400
F237        F  0.90213651  0.66396845  0.27104027    -0.19100
F238        F  0.90009624  0.60987148  0.23810681    -0.15300
F239        F  0.87957214  0.62259302  0.28253811    -0.18800
F240        F  0.85647654  0.74277703  0.12650829    -0.22200
F241        F  0.83193471  0.74624807  0.16327968    -0.23700
F242        F  0.83533176  0.69632398  0.12502419    -0.17700
F243        F  0.89814141  0.87460150  0.18628698    -0.20100
F244        F  0.87707681  0.87315338  0.14119080    -0.21300
F245        F  0.89920145  0.82770973  0.14451755    -0.18500
F246        F  0.82986258  0.77810668  0.28002710    -0.18600
F247        F  0.85147167  0.73144824  0.27830660    -0.22400
F248        F  0.82892577  0.73313261  0.23643438    -0.24000
C249        C  0.87231648  0.49815132  0.46836389    -0.10800
C250        C  0.85669924  0.48571234  0.44960573     0.11800
C251        C  0.84216250  0.46847465  0.46872485    -0.02600
C252        C  0.84366524  0.46494534  0.50651791    -0.05400
C253        C  0.85920039  0.47784751  0.52567097    -0.16100
C254        C  0.87386632  0.49470630  0.50620640     0.02800
C255        C  0.85618646  0.49025700  0.40969047     0.12700
C256        C  0.82522643  0.45360165  0.44918484     0.63300
H257        H  0.83259299  0.45196401  0.52149800     0.12800
C258        C  0.89128071  0.50818311  0.52483298     0.55500
H259        H  0.88332703  0.51074056  0.45290184     0.08500
C260        C  0.85069672  0.52546240  0.39314536    -0.05300
C261        C  0.85012583  0.52729010  0.35522564    -0.06000
C262        C  0.85519202  0.49548007  0.33337393    -0.15600
C263        C  0.86126611  0.46049893  0.35013080    -0.01200
C264        C  0.86163351  0.45865639  0.38818178    -0.08700
C265        C  0.84584296  0.56119145  0.41542849     0.65600
H266        H  0.84573385  0.55398291  0.34228713     0.11000
C267        C  0.86773084  0.42552758  0.32838155     0.64000
H268        H  0.86610740  0.43231720  0.40166166     0.08400
F269        F  0.90448707  0.51934761  0.50027690    -0.19100
F270        F  0.89872684  0.47843059  0.54545465    -0.15300
F271        F  0.88727988  0.53968475  0.54671978    -0.18800
F272        F  0.83024477  0.42448788  0.42533331    -0.22200
F273        F  0.81674933  0.48333009  0.43015171    -0.23700
F274        F  0.81251315  0.43868578  0.47294093    -0.17700
F275        F  0.88133809  0.43628576  0.30456844    -0.20100
F276        F  0.85310920  0.41027423  0.30936930    -0.21300
F277        F  0.87493325  0.39653479  0.35028604    -0.18500
F278        F  0.83994036  0.59178640  0.39396974    -0.18600
F279        F  0.86114645  0.57297441  0.43453479    -0.22400
F280        F  0.83195228  0.55302726  0.43946145    -0.24000
C281        C  0.85526217  0.99829213  0.41168332    -0.10800
C282        C  0.87100443  0.98118518  0.42710503     0.11800
C283        C  0.88427311  0.96294068  0.40476891    -0.02600
C284        C  0.88154430  0.96372545  0.36713229    -0.05400
C285        C  0.86592418  0.98151197  0.35149627    -0.16100
C286        C  0.85240393  0.99884204  0.37412615     0.02800
C287        C  0.87246659  0.98143719  0.46703524     0.12700
C288        C  0.90096984  0.94207361  0.42061787     0.63300
H289        H  0.89154234  0.94992727  0.34952918     0.12800
C290        C  0.83471332  0.01650819  0.35912005     0.55500
H291        H  0.84512152  0.01111729  0.42960551     0.08500
C292        C  0.87756422  0.01496323  0.48636500    -0.05300
C293        C  0.87622186  0.01469349  0.52422764    -0.06000
C294        C  0.86974137  0.98230820  0.54329369    -0.15600
C295        C  0.86545410  0.94803228  0.52366278    -0.01200
C296        C  0.86675517  0.94855587  0.48572654    -0.08700
C297        C  0.88396375  0.05116137  0.46698891     0.65600
H298        H  0.87976295  0.04055705  0.53914612     0.11000
C299        C  0.85912446  0.91123812  0.54198478     0.64000
H300        H  0.86272883  0.92354201  0.47001447     0.08400
F301        F  0.82268206  0.02749603  0.38629318    -0.19100
F302        F  0.82588670  0.98981261  0.33743238    -0.15300
F303        F  0.83863978  0.04913277  0.33914349    -0.18800
F304        F  0.89539614  0.91072105  0.44076486    -0.22200
F305        F  0.91071125  0.96690083  0.44262976    -0.23700
F306        F  0.91272197  0.92846204  0.39397722    -0.17700
F307        F  0.85624459  0.88155220  0.51746750    -0.20100
F308        F  0.84272569  0.91827533  0.55976735    -0.21300
F309        F  0.87238672  0.89854724  0.56629116    -0.18500
F310        F  0.88949709  0.07956422  0.49099692    -0.18600
F311        F  0.86982857  0.06644353  0.44614648    -0.22400
F312        F  0.89868559  0.04211007  0.44489006    -0.24000
C313        C  0.84711472  0.19066069  0.65877912    -0.10800
C314        C  0.86403627  0.20790635  0.66609297     0.11800
C315        C  0.87930330  0.18460673  0.67652139    -0.02600
C316        C  0.87730699  0.14408018  0.67738544    -0.05400
C317        C  0.86062573  0.12653890  0.66806830    -0.16100
C318        C  0.84509484  0.15020709  0.65932147     0.02800
C319        C  0.86516816  0.25063438  0.66265556     0.12700
C320        C  0.89754910  0.20256789  0.68671737     0.63300
H321        H  0.88893563  0.12566011  0.68452853     0.12800
C322        C  0.82640313  0.13318582  0.65089064     0.55500
H323        H  0.83555562  0.20932381  0.65169938     0.08500
C324        C  0.86729879  0.26885367  0.62876071    -0.05300
C325        C  0.86711278  0.30957772  0.62731936    -0.06000
C326        C  0.86451275  0.33250607  0.65843279    -0.15600
C327        C  0.86287558  0.31393926  0.69259562    -0.01200
C328        C  0.86311853  0.27317692  0.69388050    -0.08700
C329        C  0.86931805  0.24534630  0.59417319     0.65600
H330        H  0.86839111  0.32381644  0.60143635     0.11000
C331        C  0.86095676  0.33647565  0.72773885     0.64000
H332        H  0.86133450  0.25833984  0.71935716     0.08400
F333        F  0.81273321  0.16150546  0.64951470    -0.19100
F334        F  0.82169287  0.10692591  0.67736076    -0.15300
F335        F  0.82687712  0.11476023  0.61769974    -0.18800
F336        F  0.89540686  0.22472846  0.71760775    -0.22200
F337        F  0.90364354  0.22593348  0.65908351    -0.23700
F338        F  0.91098801  0.17466386  0.69339886    -0.17700
F339        F  0.84398760  0.35502369  0.72885307    -0.20100
F340        F  0.87477920  0.36343679  0.73045675    -0.21300
F341        F  0.86229622  0.31255014  0.75764328    -0.18500
F342        F  0.87242909  0.26869776  0.56451289    -0.18600
F343        F  0.85343840  0.22489812  0.58774324    -0.22400
F344        F  0.88394918  0.21955157  0.59721071    -0.24000
C345        C  0.94260653  0.38467625  0.07052661    -0.10800
C346        C  0.94328018  0.41055832  0.09939662     0.11800
C347        C  0.96049440  0.42343379  0.11162822    -0.02600
C348        C  0.97646793  0.41121162  0.09327274    -0.05400
C349        C  0.97633902  0.38765615  0.06155582    -0.16100
C350        C  0.95839186  0.37294657  0.05087648     0.02800
C351        C  0.92563990  0.42356772  0.11649524     0.12700
C352        C  0.96202910  0.45024488  0.14419802     0.63300
H353        H  0.98919851  0.41968675  0.10532430     0.12800
C354        C  0.95480375  0.34427609  0.01995175     0.55500
H355        H  0.92920719  0.37358681  0.06354339     0.08500
C356        C  0.91406982  0.45218743  0.10047090    -0.05300
C357        C  0.89864939  0.46605160  0.11985663    -0.06000
C358        C  0.89445855  0.45213692  0.15448410    -0.15600
C359        C  0.90523916  0.42123854  0.16915625    -0.01200
C360        C  0.92060575  0.40735453  0.14966110    -0.08700
C361        C  0.91814013  0.46825838  0.06321334     0.65600
H362        H  0.89006919  0.48892345  0.10855515     0.11000
C363        C  0.90049263  0.40252630  0.20497738     0.64000
H364        H  0.92920764  0.38436520  0.16070570     0.08400
F365        F  0.93635347  0.34323816  0.01063125    -0.19100
F366        F  0.95979165  0.30722866  0.03042534    -0.15300
F367        F  0.96392101  0.35393120  0.98884262    -0.18800
F368        F  0.95600036  0.43158376  0.17484802    -0.22200
F369        F  0.95142198  0.48328472  0.13864186    -0.23700
F370        F  0.97993894  0.46163719  0.15046665    -0.17700
F371        F  0.91060718  0.36880482  0.21077669    -0.20100
F372        F  0.88206582  0.39314349  0.20536223    -0.21300
F373        F  0.90419405  0.42769968  0.23309430    -0.18500
F374        F  0.90585283  0.49745708  0.05351710    -0.18600
F375        F  0.91687597  0.43906164  0.03773101    -0.22400
F376        F  0.93565964  0.48325260  0.06253823    -0.24000
C377        C  0.96885035  0.55315506  0.74620800    -0.10800
C378        C  0.95253041  0.54972563  0.76559455     0.11800
C379        C  0.95266360  0.55760661  0.80288778    -0.02600
C380        C  0.96921699  0.56891003  0.81932896    -0.05400
C381        C  0.98656768  0.56960799  0.80127335    -0.16100
C382        C  0.98576013  0.56435232  0.76225623     0.02800
C383        C  0.93578041  0.53572518  0.74611317     0.12700
C384        C  0.93553193  0.55256879  0.82572176     0.63300
H385        H  0.96886211  0.57611528  0.84777192     0.12800
C386        C  0.00109054  0.57311487  0.73553998     0.55500
H387        H  0.96796623  0.54705808  0.71756411     0.08500
C388        C  0.92433544  0.56039102  0.72488023    -0.05300
C389        C  0.90920215  0.54436052  0.70628660    -0.06000
C390        C  0.90531498  0.50457222  0.70779396    -0.15600
C391        C  0.91669937  0.48008238  0.72962297    -0.01200
C392        C  0.93187664  0.49613113  0.74783608    -0.08700
C393        C  0.92819000  0.60337743  0.72161074     0.65600
H394        H  0.90045912  0.56278858  0.68970319     0.11000
C395        C  0.91259328  0.43743941  0.73503166     0.64000
H396        H  0.94096336  0.47773313  0.76375489     0.08400
F397        F  0.99606583  0.56566453  0.70007451    -0.19100
F398        F  0.01655030  0.55065952  0.74185150    -0.15300
F399        F  0.00498399  0.61206442  0.73698374    -0.18800
F400        F  0.92988404  0.51454391  0.82396974    -0.22200
F401        F  0.92152849  0.57649218  0.81320688    -0.23700
F402        F  0.93863784  0.56140790  0.86172602    -0.17700
F403        F  0.91562069  0.41715747  0.70331278    -0.20100
F404        F  0.89450183  0.43342264  0.74555256    -0.21300
F405        F  0.92364024  0.42089787  0.76156334    -0.18500
F406        F  0.91530135  0.62219704  0.70002793    -0.18600
F407        F  0.94530035  0.60862947  0.70647043    -0.22400
F408        F  0.92781850  0.62055139  0.75535774    -0.24000
C409        C  0.00971570  0.43763330  0.95173096    -0.10800
C410        C  0.99386891  0.45932221  0.94444652     0.11800
C411        C  0.97781602  0.45128861  0.96361295    -0.02600
C412        C  0.97892303  0.42567056  0.99312786    -0.05400
C413        C  0.99488502  0.40278720  0.00234628    -0.16100
C414        C  0.01075771  0.40882153  0.97898877     0.02800
C415        C  0.99468244  0.48992937  0.91597265     0.12700
C416        C  0.95940415  0.46919826  0.95235686     0.63300
H417        H  0.96677345  0.42491574  0.00918768     0.12800
C418        C  0.02983490  0.38975176  0.98275495     0.55500
H419        H  0.02170300  0.44467614  0.93591578     0.08500
C420        C  0.99826965  0.52905607  0.92399533    -0.05300
C421        C  0.99903718  0.55604637  0.89539490    -0.06000
C422        C  0.00028599  0.54471235  0.85847188    -0.15600
C423        C  0.99661539  0.50399535  0.85100444    -0.01200
C424        C  0.99312564  0.47860672  0.87999765    -0.08700
C425        C  0.00298065  0.54158831  0.96233788     0.65600
H426        H  0.99967719  0.58607715  0.90264965     0.11000
C427        C  0.99551603  0.48486720  0.81375508     0.64000
H428        H  0.98987492  0.44855061  0.87473648     0.08400
F429        F  0.03964944  0.40666753  0.01038240    -0.19100
F430        F  0.04018022  0.39400068  0.95168966    -0.15300
F431        F  0.02887765  0.35069424  0.98798853    -0.18800
F432        F  0.95549642  0.45853961  0.91714599    -0.22200
F433        F  0.95989945  0.50912656  0.95430333    -0.23700
F434        F  0.94513441  0.45688197  0.97393479    -0.17700
F435        F  0.00105010  0.44630774  0.81536816    -0.20100
F436        F  0.00666969  0.50186704  0.78882004    -0.21300
F437        F  0.97756578  0.48586621  0.80151125    -0.18500
F438        F  0.00518504  0.58124272  0.96499405    -0.18600
F439        F  0.01930039  0.52373025  0.97273000    -0.22400
F440        F  0.98939679  0.53123318  0.98622065    -0.24000
C441        C  0.95378059  0.08717177  0.10637297    -0.10800
C442        C  0.95336829  0.04922193  0.11879145     0.11800
C443        C  0.96864290  0.02458581  0.11347397    -0.02600
C444        C  0.98399305  0.03925985  0.09549003    -0.05400
C445        C  0.98473570  0.07754373  0.08096110    -0.16100
C446        C  0.96955710  0.10333767  0.09087885     0.02800
C447        C  0.93688171  0.03712861  0.13898078     0.12700
C448        C  0.96830848  0.98226771  0.12489947     0.63300
H449        H  0.99515405  0.01924638  0.08999071     0.12800
C450        C  0.96852793  0.14765066  0.09130354     0.55500
H451        H  0.94182586  0.10549866  0.11165239     0.08500
C452        C  0.93501622  0.04429292  0.17643736    -0.05300
C453        C  0.91879483  0.03276956  0.19370894    -0.06000
C454        C  0.90417445  0.01599899  0.17446504    -0.15600
C455        C  0.90593985  0.01009639  0.13654344    -0.01200
C456        C  0.92240781  0.02065238  0.11958191    -0.08700
C457        C  0.94980997  0.06532345  0.19770785     0.65600
H458        H  0.91726113  0.03753969  0.22247246     0.11000
C459        C  0.89080586  0.99210976  0.11393351     0.64000
H460        H  0.92413500  0.01646249  0.09077375     0.08400
F461        F  0.96185785  0.16020085  0.12443823    -0.19100
F462        F  0.95648064  0.16065098  0.06485827    -0.15300
F463        F  0.98495818  0.16559980  0.08756115    -0.18800
F464        F  0.95448637  0.96351273  0.10637602    -0.22200
F465        F  0.96507275  0.97936935  0.16153984    -0.23700
F466        F  0.98476059  0.96318461  0.11763933    -0.17700
F467        F  0.87544626  0.01619648  0.11394668    -0.20100
F468        F  0.88635062  0.95632157  0.12788304    -0.21300
F469        F  0.89606711  0.98665543  0.07835477    -0.18500
F470        F  0.94590120  0.06675632  0.23425512    -0.18600
F471        F  0.95110131  0.10292524  0.18529546    -0.22400
F472        F  0.96667477  0.04693203  0.19367483    -0.24000
C473        C  0.98804831  0.18492672  0.01186619    -0.10800
C474        C  0.00227450  0.20828140  0.02444905     0.11800
C475        C  0.01815069  0.19025366  0.03908888    -0.02600
C476        C  0.01799488  0.15015650  0.04581683    -0.05400
C477        C  0.00251324  0.12671326  0.03877752    -0.16100
C478        C  0.98838011  0.14407838  0.01610736     0.02800
C479        C  0.99933003  0.25125866  0.02648883     0.12700
C480        C  0.03502226  0.21351065  0.04907951     0.63300
H481        H  0.03004419  0.13773914  0.05830501     0.12800
C482        C  0.97385779  0.12143781  0.99525592     0.55500
H483        H  0.97624280  0.19929452  0.99976501     0.08500
C484        C  0.99963696  0.27609940  0.99628731    -0.05300
C485        C  0.99729479  0.31641944  0.00174986    -0.06000
C486        C  0.99587073  0.33371061  0.03659056    -0.15600
C487        C  0.99430305  0.30729111  0.06693885    -0.01200
C488        C  0.99579276  0.26702268  0.06053826    -0.08700
C489        C  0.00271053  0.26022621  0.95843529     0.65600
H490        H  0.99692336  0.33466180  0.97816589     0.11000
C491        C  0.98992720  0.31874095  0.10608550     0.64000
H492        H  0.99432803  0.24677743  0.08263605     0.08400
F493        F  0.98228153  0.09814916  0.96967129    -0.19100
F494        F  0.96179642  0.14573018  0.97674077    -0.15300
F495        F  0.96336022  0.09921605  0.01775412    -0.18800
F496        F  0.03125520  0.23690356  0.07850590    -0.22200
F497        F  0.04008516  0.23629755  0.02022010    -0.23700
F498        F  0.04989343  0.18984851  0.05794622    -0.17700
F499        F  0.97123048  0.32474421  0.10987226    -0.20100
F500        F  0.99908195  0.35122965  0.11720101    -0.21300
F501        F  0.99505044  0.28970522  0.13006531    -0.18500
F502        F  0.00419552  0.28952172  0.93316069    -0.18600
F503        F  0.98814884  0.23729155  0.94835616    -0.22400
F504        F  0.01875268  0.23828769  0.95751660    -0.24000
C505        C  0.95218511  0.90843143  0.81296270    -0.10800
C506        C  0.95295611  0.89430686  0.77772437     0.11800
C507        C  0.96769500  0.86954598  0.76795522    -0.02600
C508        C  0.98187257  0.86227534  0.79337210    -0.05400
C509        C  0.98253664  0.88000428  0.82815984    -0.16100
C510        C  0.96547789  0.89871984  0.83943298     0.02800
C511        C  0.93769529  0.90586644  0.75252532     0.12700
C512        C  0.96866758  0.85170535  0.73050579     0.63300
H513        H  0.99326602  0.84430628  0.78509196     0.12800
C514        C  0.95846585  0.90640965  0.87767627     0.55500
H515        H  0.94019294  0.92565830  0.82050726     0.08500
C516        C  0.91960801  0.89128704  0.75525466    -0.05300
C517        C  0.90517630  0.90999736  0.73616035    -0.06000
C518        C  0.90810859  0.94211499  0.71354154    -0.15600
C519        C  0.92658513  0.95483370  0.70894937    -0.01200
C520        C  0.94085737  0.93683395  0.72910659    -0.08700
C521        C  0.91463922  0.85636299  0.77793025     0.65600
H522        H  0.89134415  0.89925138  0.73922397     0.11000
C523        C  0.93156135  0.98754013  0.68350096     0.64000
H524        H  0.95472626  0.94770133  0.72769450     0.08400
F525        F  0.96777130  0.88686146  0.90430313    -0.19100
F526        F  0.94042659  0.89434533  0.88029736    -0.15300
F527        F  0.95869631  0.94573023  0.88470257    -0.18800
F528        F  0.97040498  0.88061229  0.70500755    -0.22200
F529        F  0.95282093  0.83129541  0.72352651    -0.23700
F530        F  0.98351585  0.82642601  0.72701267    -0.17700
F531        F  0.92293983  0.02159191  0.69428692    -0.20100
F532        F  0.92628513  0.97823517  0.64862349    -0.21300
F533        F  0.95029636  0.99409168  0.68304444    -0.18500
F534        F  0.90589610  0.82952036  0.75626326    -0.18600
F535        F  0.90275185  0.86795408  0.80506345    -0.22400
F536        F  0.92969943  0.83808662  0.79357537    -0.24000
C537        C  0.01706844  0.76517045  0.83929092    -0.10800
C538        C  0.00290602  0.74753563  0.85794965     0.11800
C539        C  0.98977806  0.77097314  0.87548728    -0.02600
C540        C  0.99053387  0.81158749  0.87121724    -0.05400
C541        C  0.00482905  0.83113984  0.85274342    -0.16100
C542        C  0.01791962  0.80576609  0.83366949     0.02800
C543        C  0.00117291  0.70444159  0.85428501     0.12700
C544        C  0.97550628  0.75308995  0.90004021     0.63300
H545        H  0.97947725  0.82850824  0.88202080     0.12800
C546        C  0.03205687  0.81699248  0.80472088     0.55500
H547        H  0.02703647  0.74573157  0.82698332     0.08500
C548        C  0.99054773  0.68792796  0.82656179    -0.05300
C549        C  0.99012748  0.64724941  0.82314531    -0.06000
C550        C  0.00213537  0.62094827  0.84234868    -0.15600
C551        C  0.01461673  0.63988405  0.86745574    -0.01200
C552        C  0.01274730  0.68018305  0.87444479    -0.08700
C553        C  0.98122459  0.71340619  0.79794151     0.65600
H554        H  0.98149096  0.63714268  0.80169614     0.11000
C555        C  0.03123799  0.62211419  0.88659582     0.64000
H556        H  0.02176718  0.69375642  0.89401963     0.08400
F557        F  0.03754873  0.78537783  0.78403515    -0.19100
F558        F  0.04784087  0.83076120  0.82049840    -0.15300
F559        F  0.02508656  0.84307304  0.78004826    -0.18800
F560        F  0.98440022  0.73401664  0.92806602    -0.22200
F561        F  0.96493134  0.72674279  0.88140710    -0.23700
F562        F  0.96378774  0.78078967  0.91475487    -0.17700
F563        F  0.02941852  0.62704641  0.92352591    -0.20100
F564        F  0.04691335  0.64093349  0.87552903    -0.21300
F565        F  0.03391392  0.58364255  0.88015413    -0.18500
F566        F  0.97170593  0.69195655  0.77255742    -0.18600
F567        F  0.99443466  0.73411705  0.77980023    -0.22400
F568        F  0.96892218  0.73917968  0.81353197    -0.24000
C569        C  0.01596009  0.01970255  0.97072491    -0.10800
C570        C  0.00137220  0.99391483  0.96836754     0.11800
C571        C  0.98608957  0.99967791  0.99109453    -0.02600
C572        C  0.98625958  0.03034722  0.01625128    -0.05400
C573        C  0.00132902  0.05589387  0.02105928    -0.16100
C574        C  0.01593163  0.05191193  0.99461089     0.02800
C575        C  0.00168298  0.96344370  0.93931930     0.12700
C576        C  0.96941305  0.97365744  0.98854231     0.63300
H577        H  0.97398279  0.03438206  0.03183730     0.12800
C578        C  0.03119409  0.08134437  0.98904750     0.55500
H579        H  0.02726914  0.01482227  0.95230024     0.08500
C580        C  0.99814155  0.97277295  0.90301346    -0.05300
C581        C  0.99782648  0.94285180  0.87735801    -0.06000
C582        C  0.00100149  0.90280139  0.88518951    -0.15600
C583        C  0.00406131  0.89335964  0.92328713    -0.01200
C584        C  0.00472666  0.92455931  0.94864889    -0.08700
C585        C  0.99466278  0.01446674  0.89104962     0.65600
H586        H  0.99493954  0.95104402  0.84975501     0.11000
C587        C  0.00472598  0.85289008  0.94071827     0.64000
H588        H  0.00711199  0.91897844  0.97705025     0.08400
F589        F  0.02365539  0.11616587  0.97761085    -0.19100
F590        F  0.04349426  0.06970137  0.96256455    -0.15300
F591        F  0.04140470  0.08675412  0.01998510    -0.18800
F592        F  0.97440515  0.93594202  0.99688977    -0.22200
F593        F  0.96227070  0.97482103  0.95391942    -0.23700
F594        F  0.95559805  0.98492231  0.01211058    -0.17700
F595        F  0.01175107  0.85413983  0.97555347    -0.20100
F596        F  0.01566655  0.82659240  0.92279762    -0.21300
F597        F  0.98717846  0.83866289  0.94351603    -0.18500
F598        F  0.98920224  0.01676351  0.85522330    -0.18600
F599        F  0.01058288  0.03547320  0.89484897    -0.22400
F600        F  0.98095067  0.03142016  0.91173957    -0.24000
C601        C  0.04068757  0.39819518  0.09840025    -0.10800
C602        C  0.04048182  0.43843318  0.09909255     0.11800
C603        C  0.02672679  0.45879549  0.07999560    -0.02600
C604        C  0.01284376  0.43758012  0.06271030    -0.05400
C605        C  0.01259070  0.39611137  0.06088823    -0.16100
C606        C  0.02855196  0.37628789  0.07697513     0.02800
C607        C  0.05623489  0.45740875  0.11738549     0.12700
C608        C  0.02679129  0.50273752  0.07758342     0.63300
H609        H  0.00168059  0.45381220  0.05030230     0.12800
C610        C  0.03547310  0.33411721  0.07353795     0.55500
H611        H  0.05173226  0.38370310  0.11314450     0.08500
C612        C  0.05717439  0.46120388  0.15536456    -0.05300
C613        C  0.07376331  0.47318582  0.17128934    -0.06000
C614        C  0.08957363  0.48057899  0.15065635    -0.15600
C615        C  0.08841217  0.47748444  0.11230274    -0.01200
C616        C  0.07167418  0.46594806  0.09649754    -0.08700
C617        C  0.04102260  0.45064977  0.17911176     0.65600
H618        H  0.07459265  0.47582328  0.20039898     0.11000
C619        C  0.10475898  0.48472401  0.08792172     0.64000
H620        H  0.07064241  0.46198184  0.06752456     0.08400
F621        F  0.05449124  0.33321701  0.07083767    -0.19100
F622        F  0.02968379  0.31448954  0.04368440    -0.15300
F623        F  0.03092531  0.31376941  0.10424274    -0.18800
F624        F  0.04209297  0.51430677  0.05865250    -0.22200
F625        F  0.02728535  0.51885446  0.11177669    -0.23700
F626        F  0.01133759  0.51723090  0.05997496    -0.17700
F627        F  0.10075028  0.47737089  0.05196409    -0.20100
F628        F  0.11930574  0.46070601  0.09782700    -0.21300
F629        F  0.10992242  0.52303590  0.09059596    -0.18500
F630        F  0.04377313  0.46175440  0.21467293    -0.18600
F631        F  0.03864536  0.41099651  0.17828449    -0.22400
F632        F  0.02511081  0.46875405  0.16690877    -0.24000
C633        C  0.14515938  0.70872190  0.19117185    -0.10800
C634        C  0.13012757  0.72646145  0.20836240     0.11800
C635        C  0.11538900  0.70381446  0.22058881    -0.02600
C636        C  0.11707921  0.66326352  0.21834225    -0.05400
C637        C  0.13267126  0.64520345  0.20312507    -0.16100
C638        C  0.14678271  0.66821477  0.18834003     0.02800
C639        C  0.13103980  0.76854146  0.21566894     0.12700
C640        C  0.09803728  0.72250391  0.23579834     0.63300
H641        H  0.10625281  0.64523934  0.22873845     0.12800
C642        C  0.16387436  0.65036434  0.17124379     0.55500
H643        H  0.15600404  0.72703763  0.18130262     0.08500
C644        C  0.14111939  0.78285858  0.24547955    -0.05300
C645        C  0.14230033  0.82305881  0.25012493    -0.06000
C646        C  0.13381242  0.84922006  0.22606718    -0.15600
C647        C  0.12325006  0.83476826  0.19670202    -0.01200
C648        C  0.12227801  0.79435991  0.19180900    -0.08700
C649        C  0.15067557  0.75577318  0.27220974     0.65600
H650        H  0.15027345  0.83443237  0.27242183     0.11000
C651        C  0.11260615  0.86141479  0.17128266     0.64000
H652        H  0.11475379  0.78247471  0.16913605     0.08400
F653        F  0.17653752  0.67814546  0.16192265    -0.19100
F654        F  0.15906988  0.63063648  0.14012697    -0.15300
F655        F  0.17234168  0.62504594  0.19523353    -0.18800
F656        F  0.08971935  0.74524347  0.20953003    -0.22200
F657        F  0.10224599  0.74545736  0.26526145    -0.23700
F658        F  0.08550883  0.69514217  0.24674963    -0.17700
F659        F  0.12465145  0.88221087  0.15034262    -0.20100
F660        F  0.10165994  0.88671347  0.19104073    -0.21300
F661        F  0.10125816  0.84091785  0.14822339    -0.18500
F662        F  0.15906292  0.77587921  0.30002099    -0.18600
F663        F  0.16406675  0.73400991  0.25482278    -0.22400
F664        F  0.13803001  0.73116295  0.28733351    -0.24000
C665        C  0.04221533  0.08388374  0.12884079    -0.10800
C666        C  0.05220360  0.05114217  0.11861694     0.11800
C667        C  0.04510573  0.02663247  0.09186648    -0.02600
C668        C  0.02901790  0.03827245  0.07347289    -0.05400
C669        C  0.01922760  0.07374844  0.08056636    -0.16100
C670        C  0.02512606  0.09409855  0.11313420     0.02800
C671        C  0.06845041  0.04039788  0.14096290     0.12700
C672        C  0.05426772  0.98773175  0.08345984     0.63300
H673        H  0.02375358  0.01784809  0.05424511     0.12800
C674        C  0.01426636  0.12489395  0.13439201     0.55500
H675        H  0.04780780  0.10067211  0.15097032     0.08500
C676        C  0.08627469  0.05378354  0.13341092    -0.05300
C677        C  0.10090310  0.04209270  0.15616378    -0.06000
C678        C  0.09797526  0.01971531  0.18733162    -0.15600
C679        C  0.07969000  0.00892921  0.19623235    -0.01200
C680        C  0.06534174  0.01907057  0.17237092    -0.08700
C681        C  0.08960124  0.08136649  0.10227774     0.65600
H682        H  0.11475588  0.05101195  0.15009085     0.11000
C683        C  0.07505156  0.98667240  0.23038155     0.64000
H684        H  0.05135338  0.01079336  0.17814925     0.08400
F685        F  0.02163311  0.13092472  0.16852184    -0.19100
F686        F  0.99657619  0.11345273  0.14054701    -0.15300
F687        F  0.01459931  0.16022025  0.11740148    -0.18800
F688        F  0.05412273  0.96454426  0.11386364    -0.22200
F689        F  0.07225555  0.99305974  0.07300530    -0.23700
F690        F  0.04537468  0.96817984  0.05591089    -0.17700
F691        F  0.07931334  0.00874044  0.26044100    -0.20100
F692        F  0.08480713  0.95200306  0.23137148    -0.21300
F693        F  0.05654138  0.97809083  0.23226534    -0.18500
F694        F  0.10796195  0.09082443  0.09945408    -0.18600
F695        F  0.07959209  0.11524932  0.10764166    -0.22400
F696        F  0.08417071  0.06481212  0.07001087    -0.24000
C697        C  0.13112061  0.45481303  0.46276700    -0.10800
C698        C  0.14078604  0.48352565  0.44451347     0.11800
C699        C  0.15029582  0.51203466  0.46440401    -0.02600
C700        C  0.15031555  0.50993812  0.50233180    -0.05400
C701        C  0.14081389  0.48098498  0.52096499    -0.16100
C702        C  0.13078847  0.45304886  0.50080229     0.02800
C703        C  0.13920737  0.48533529  0.40456746     0.12700
C704        C  0.16009334  0.54496758  0.44563849     0.63300
H705        H  0.15782003  0.53120251  0.51781352     0.12800
C706        C  0.11918002  0.42241991  0.51885683     0.55500
H707        H  0.12357073  0.43405277  0.44674740     0.08500
C708        C  0.15125233  0.46480153  0.38131343    -0.05300
C709        C  0.14967234  0.47087858  0.34376995    -0.06000
C710        C  0.13614643  0.49591227  0.32895453    -0.15600
C711        C  0.12321441  0.51416884  0.35256733    -0.01200
C712        C  0.12512947  0.50854088  0.39001153    -0.08700
C713        C  0.16535423  0.43600508  0.39613402     0.65600
H714        H  0.15917671  0.45626211  0.32570542     0.11000
C715        C  0.10727425  0.53918644  0.33892854     0.64000
H716        H  0.11581520  0.52298000  0.40860222     0.08400
F717        F  0.13036710  0.39628792  0.53716226    -0.19100
F718        F  0.10893570  0.40172544  0.49400124    -0.15300
F719        F  0.10704743  0.43992814  0.54274101    -0.18800
F720        F  0.14757007  0.56698124  0.42603853    -0.22200
F721        F  0.17332319  0.53032224  0.42246784    -0.23700
F722        F  0.16868601  0.56923460  0.47007254    -0.17700
F723        F  0.09744592  0.51914922  0.31301798    -0.20100
F724        F  0.11381223  0.57317252  0.32440841    -0.21300
F725        F  0.09521087  0.54919424  0.36636590    -0.18500
F726        F  0.17626287  0.42033983  0.36907886    -0.18600
F727        F  0.15638775  0.40602504  0.41299307    -0.22400
F728        F  0.17673251  0.45376363  0.42093804    -0.24000
C729        C  0.05199206  0.53966082  0.78867244    -0.10800
C730        C  0.05656159  0.57105745  0.76717383     0.11800
C731        C  0.04576493  0.60500643  0.76899614    -0.02600
C732        C  0.02981241  0.60496919  0.79041800    -0.05400
C733        C  0.02380647  0.57238287  0.81081594    -0.16100
C734        C  0.03750913  0.54097903  0.81396235     0.02800
C735        C  0.07262808  0.56643509  0.74267101     0.12700
C736        C  0.05020445  0.64025044  0.74623716     0.63300
H737        H  0.02138015  0.63079455  0.78929439     0.12800
C738        C  0.04015857  0.50878983  0.84246662     0.55500
H739        H  0.06086806  0.51413363  0.78719032     0.08500
C740        C  0.09099308  0.56659497  0.75554533    -0.05300
C741        C  0.10521270  0.55493646  0.73199430    -0.06000
C742        C  0.10165633  0.54284265  0.69629898    -0.15600
C743        C  0.08334167  0.54606515  0.68269289    -0.01200
C744        C  0.06915505  0.55737249  0.70642811    -0.08700
C745        C  0.09553151  0.57782523  0.79428586     0.65600
H746        H  0.11918631  0.55323831  0.74209336     0.11000
C747        C  0.07844877  0.53716704  0.64363189     0.64000
H748        H  0.05499174  0.55747242  0.69726696     0.08400
F749        F  0.05860275  0.50617021  0.85194232    -0.19100
F750        F  0.03537663  0.47348041  0.82785796    -0.15300
F751        F  0.03135304  0.51393832  0.87472792    -0.18800
F752        F  0.04669389  0.63222761  0.71028168    -0.22200
F753        F  0.06849659  0.64972727  0.75016110    -0.23700
F754        F  0.03974644  0.67237688  0.75611736    -0.17700
F755        F  0.06074368  0.54940167  0.63512288    -0.20100
F756        F  0.07956615  0.49764597  0.63761430    -0.21300
F757        F  0.09029965  0.55609309  0.62071171    -0.18500
F758        F  0.11430658  0.58039741  0.79989677    -0.18600
F759        F  0.08884460  0.55045390  0.81780568    -0.22400
F760        F  0.08769551  0.61347947  0.80244221    -0.24000
C761        C  0.14700587  0.03497970  0.41833562    -0.10800
C762        C  0.13434925  0.01306541  0.43770973     0.11800
C763        C  0.12216819  0.98848769  0.41905752    -0.02600
C764        C  0.12423124  0.98398544  0.38153457    -0.05400
C765        C  0.13764886  0.00411702  0.36207310    -0.16100
C766        C  0.14885315  0.03123719  0.38059533     0.02800
C767        C  0.13475717  0.01511507  0.47775501     0.12700
C768        C  0.10712570  0.96709313  0.43881183     0.63300
H769        H  0.11537165  0.96428818  0.36706424     0.12800
C770        C  0.16307209  0.05529303  0.36122361     0.55500
H771        H  0.15579373  0.05435785  0.43336528     0.08500
C772        C  0.14710870  0.99193899  0.49826213    -0.05300
C773        C  0.14671210  0.99483410  0.53612362    -0.06000
C774        C  0.13467529  0.02059990  0.55405417    -0.15600
C775        C  0.12223385  0.04388046  0.53325430    -0.01200
C776        C  0.12262871  0.04070460  0.49529074    -0.08700
C777        C  0.16095848  0.96491799  0.48012779     0.65600
H778        H  0.15625939  0.97753466  0.55204557     0.11000
C779        C  0.10833268  0.07143628  0.55055440     0.64000
H780        H  0.11346769  0.05830538  0.47877604     0.08400
F781        F  0.17284522  0.07841617  0.38488844    -0.19100
F782        F  0.15442256  0.07940859  0.33644120    -0.15300
F783        F  0.17550972  0.03119962  0.34365831    -0.18800
F784        F  0.09532443  0.99356070  0.45503425    -0.22200
F785        F  0.11470502  0.94325009  0.46505761    -0.23700
F786        F  0.09687410  0.94438222  0.41560479    -0.17700
F787        F  0.11732731  0.10183518  0.56699994    -0.20100
F788        F  0.09809880  0.05182876  0.57588221    -0.21300
F789        F  0.09620784  0.08705255  0.52538004    -0.18500
F790        F  0.17087156  0.94316299  0.50505705    -0.18600
F791        F  0.17323581  0.98640476  0.46035397    -0.22400
F792        F  0.15207572  0.93954012  0.45724423    -0.24000
C793        C  0.13562178  0.21673829  0.71472959    -0.10800
C794        C  0.13785949  0.23677823  0.68219684     0.11800
C795        C  0.13901959  0.21598946  0.64931668    -0.02600
C796        C  0.13843484  0.17541744  0.65028713    -0.05400
C797        C  0.13660712  0.15476383  0.68283088    -0.16100
C798        C  0.13458047  0.17594177  0.71573115     0.02800
C799        C  0.13956510  0.27957759  0.68293866     0.12700
C800        C  0.14102300  0.23656458  0.61323754     0.63300
H801        H  0.13970902  0.15947834  0.62519412     0.12800
C802        C  0.13129452  0.15622671  0.75174414     0.55500
H803        H  0.13486504  0.23348923  0.73946293     0.08500
C804        C  0.12405845  0.30469523  0.68430799    -0.05300
C805        C  0.12659609  0.34454892  0.67851203    -0.06000
C806        C  0.14403082  0.35966734  0.67104709    -0.15600
C807        C  0.15971466  0.33460960  0.67228236    -0.01200
C808        C  0.15713364  0.29495789  0.67886334    -0.08700
C809        C  0.10493363  0.28928623  0.69108869     0.65600
H810        H  0.11479340  0.36402412  0.67833336     0.11000
C811        C  0.17909459  0.34905070  0.66621787     0.64000
H812        H  0.16878361  0.27504567  0.67877506     0.08400
F813        F  0.11574544  0.13371668  0.74948959    -0.19100
F814        F  0.12854412  0.18276298  0.77938857    -0.15300
F815        F  0.14634702  0.13329147  0.76086588    -0.18800
F816        F  0.15775925  0.25491304  0.61183498    -0.22200
F817        F  0.12704499  0.26375170  0.60893446    -0.23700
F818        F  0.14019354  0.21104774  0.58437712    -0.17700
F819        F  0.19224719  0.32094900  0.67429435    -0.20100
F820        F  0.18237315  0.38078707  0.68809716    -0.21300
F821        F  0.18124779  0.35922613  0.63037975    -0.18500
F822        F  0.09168960  0.31848949  0.69028698    -0.18600
F823        F  0.10439093  0.27202103  0.72472309    -0.22400
F824        F  0.10047433  0.26222221  0.66500512    -0.24000
C825        C  0.04991602  0.91896951  0.81744864    -0.10800
C826        C  0.04541625  0.93576275  0.78445520     0.11800
C827        C  0.02695830  0.93608852  0.77295592    -0.02600
C828        C  0.01363522  0.91860680  0.79499853    -0.05400
C829        C  0.01796403  0.89781380  0.82744026    -0.16100
C830        C  0.03679619  0.90165768  0.84005708     0.02800
C831        C  0.06072168  0.95234360  0.76288091     0.12700
C832        C  0.02134410  0.95504993  0.73746587     0.63300
H833        H  0.99959685  0.92249396  0.78661743     0.12800
C834        C  0.04404910  0.88934478  0.87706997     0.55500
H835        H  0.06420187  0.92030044  0.82559120     0.08500
C836        C  0.06913839  0.98778422  0.77232875    -0.05300
C837        C  0.08484077  0.99931925  0.75321589    -0.06000
C838        C  0.09243783  0.97676404  0.72519216    -0.15600
C839        C  0.08390156  0.94139701  0.71555574    -0.01200
C840        C  0.06823922  0.92974931  0.73488656    -0.08700
C841        C  0.06185253  0.01305128  0.80293533     0.65600
H842        H  0.09144821  0.02623618  0.76026686     0.11000
C843        C  0.09164681  0.91513109  0.68619693     0.64000
H844        H  0.06186570  0.90231802  0.72879786     0.08400
F845        F  0.03820201  0.91537605  0.90300042    -0.19100
F846        F  0.06308313  0.88855372  0.87874483    -0.15300
F847        F  0.03865223  0.85266064  0.88528351    -0.18800
F848        F  0.03004698  0.93639501  0.70908210    -0.22200
F849        F  0.02627138  0.99357332  0.73764113    -0.23700
F850        F  0.00257622  0.95338070  0.73140600    -0.17700
F851        F  0.08227360  0.88057190  0.68381694    -0.20100
F852        F  0.10989872  0.90643493  0.69357852    -0.21300
F853        F  0.09025246  0.93330819  0.65303339    -0.18500
F854        F  0.07067246  0.04831119  0.80457139    -0.18600
F855        F  0.06456046  0.99449915  0.83560778    -0.22400
F856        F  0.04328749  0.02046894  0.79814465    -0.24000
C857        C  0.26653617  0.47129201  0.16637995    -0.10800
C858        C  0.25529849  0.48330850  0.19507756     0.11800
C859        C  0.26331510  0.49124317  0.22914472    -0.02600
C860        C  0.28249729  0.48735217  0.23320599    -0.05400
C861        C  0.29390711  0.47451194  0.20482731    -0.16100
C862        C  0.28575826  0.46655754  0.17053165     0.02800
C863        C  0.23502613  0.48609562  0.18939816     0.12700
C864        C  0.25153801  0.50232308  0.26151874     0.63300
H865        H  0.28865745  0.49299937  0.25932830     0.12800
C866        C  0.29705613  0.45311544  0.13830998     0.55500
H867        H  0.25999342  0.46496417  0.14074256     0.08500
C868        C  0.22629676  0.52038618  0.17680982    -0.05300
C869        C  0.20696660  0.52303496  0.17779816    -0.06000
C870        C  0.19612778  0.49229213  0.19011834    -0.15600
C871        C  0.20493441  0.45663967  0.19959393    -0.01200
C872        C  0.22431665  0.45432686  0.19905418    -0.08700
C873        C  0.23739674  0.55414290  0.16289212     0.65600
H874        H  0.20014663  0.54974306  0.16967418     0.11000
C875        C  0.19416738  0.42170146  0.21181198     0.64000
H876        H  0.23139055  0.42807478  0.20763823     0.08400
F877        F  0.28663825  0.45176339  0.10694036    -0.19100
F878        F  0.30404736  0.41625862  0.14463565    -0.15300
F879        F  0.31132640  0.47838471  0.13248161    -0.18800
F880        F  0.24046805  0.47163456  0.27055389    -0.22200
F881        F  0.24055562  0.53419863  0.25353137    -0.23700
F882        F  0.26211677  0.51144575  0.29144517    -0.17700
F883        F  0.20558174  0.39059532  0.22045776    -0.20100
F884        F  0.18253622  0.40995096  0.18437125    -0.21300
F885        F  0.18400618  0.43111337  0.24217451    -0.18500
F886        F  0.22620942  0.58449385  0.15131475    -0.18600
F887        F  0.24801197  0.54205390  0.13398199    -0.22400
F888        F  0.24879256  0.56791677  0.18983548    -0.24000
C889        C  0.23479752  0.94851352  0.22646782    -0.10800
C890        C  0.24313909  0.98419221  0.23288304     0.11800
C891        C  0.23202263  0.01809500  0.23569685    -0.02600
C892        C  0.21271572  0.01443389  0.23544647    -0.05400
C893        C  0.20424787  0.97823406  0.23153391    -0.16100
C894        C  0.21554109  0.94479298  0.22529653     0.02800
C895        C  0.26360195  0.98466068  0.23613398     0.12700
C896        C  0.24051984  0.05790844  0.23867893     0.63300
H897        H  0.20407372  0.03991941  0.23916986     0.12800
C898        C  0.20757216  0.90532358  0.21666169     0.55500
H899        H  0.24362919  0.92323371  0.22309335     0.08500
C900        C  0.27270336  0.97660556  0.26922550    -0.05300
C901        C  0.29207921  0.97642598  0.27017372    -0.06000
C902        C  0.30270098  0.98264807  0.23904098    -0.15600
C903        C  0.29347553  0.98930002  0.20556109    -0.01200
C904        C  0.27404362  0.99028218  0.20486265    -0.08700
C905        C  0.26197885  0.96760629  0.30330260     0.65600
H906        H  0.29914554  0.97105115  0.29551759     0.11000
C907        C  0.30390914  0.99598555  0.17075317     0.64000
H908        H  0.26673568  0.99524521  0.17970248     0.08400
F909        F  0.19945883  0.89001004  0.24706410    -0.19100
F910        F  0.22097598  0.87923025  0.20520637    -0.15300
F911        F  0.19467528  0.90884092  0.18922590    -0.18800
F912        F  0.25143988  0.06447215  0.20890553    -0.22200
F913        F  0.25118267  0.06023918  0.26955526    -0.23700
F914        F  0.22726744  0.08707947  0.24010782    -0.17700
F915        F  0.29221136  0.00415696  0.14206137    -0.20100
F916        F  0.31400111  0.96305052  0.16200115    -0.21300
F917        F  0.31557146  0.02699918  0.17489639    -0.18500
F918        F  0.27347890  0.96059876  0.33254222    -0.18600
F919        F  0.25150665  0.93499370  0.29785350    -0.22400
F920        F  0.25048640  0.99840064  0.31204872    -0.24000
C921        C  0.38077916  0.18530158  0.24147289    -0.10800
C922        C  0.36472250  0.20324690  0.22832059     0.11800
C923        C  0.34966165  0.18048335  0.21752636    -0.02600
C924        C  0.35087768  0.14015885  0.22206762    -0.05400
C925        C  0.36655358  0.12201396  0.23712543    -0.16100
C926        C  0.38200626  0.14490300  0.24640559     0.02800
C927        C  0.36359272  0.24615776  0.22829739     0.12700
C928        C  0.33228754  0.19881229  0.20176616     0.63300
H929        H  0.33927240  0.12251486  0.21461369     0.12800
C930        C  0.39973042  0.12732403  0.26136044     0.55500
H931        H  0.39216617  0.20355819  0.24899326     0.08500
C932        C  0.35917806  0.26710907  0.25999559    -0.05300
C933        C  0.35714259  0.30751823  0.25778719    -0.06000
C934        C  0.35957912  0.32774899  0.22517472    -0.15600
C935        C  0.36450947  0.30654586  0.19350879    -0.01200
C936        C  0.36647889  0.26592534  0.19585610    -0.08700
C937        C  0.35679336  0.24686721  0.29611480     0.65600
H938        H  0.35379750  0.32371559  0.28201441     0.11000
C939        C  0.36743268  0.32604036  0.15726975     0.64000
H940        H  0.37012681  0.24898585  0.17221828     0.08400
F941        F  0.41353574  0.15441090  0.26396032    -0.19100
F942        F  0.40590681  0.09786407  0.23888135    -0.15300
F943        F  0.39674717  0.11284060  0.29560549    -0.18800
F944        F  0.33636011  0.21717573  0.16969370    -0.22200
F945        F  0.32497629  0.22562330  0.22572489    -0.23700
F946        F  0.31896992  0.17154542  0.19462943    -0.17700
F947        F  0.38235865  0.35031258  0.15940941    -0.20100
F948        F  0.35185965  0.34713194  0.14765470    -0.21300
F949        F  0.37089554  0.29940045  0.13001171    -0.18500
F950        F  0.35094612  0.27226774  0.32284153    -0.18600
F951        F  0.37339071  0.23065516  0.30701019    -0.22400
F952        F  0.34390562  0.21797448  0.29308429    -0.24000
C953        C  0.23206189  0.50995512  0.69773689    -0.10800
C954        C  0.24238444  0.51973340  0.66728934     0.11800
C955        C  0.23328673  0.52752857  0.63413123    -0.02600
C956        C  0.21404444  0.52400980  0.63236421    -0.05400
C957        C  0.20368431  0.51248402  0.66239202    -0.16100
C958        C  0.21277846  0.50659074  0.69608562     0.02800
C959        C  0.26279650  0.52027596  0.67048545     0.12700
C960        C  0.24392652  0.53853984  0.60049942     0.63300
H961        H  0.20701931  0.52868241  0.60685992     0.12800
C962        C  0.20231735  0.49743670  0.73037855     0.55500
H963        H  0.23934215  0.50423949  0.72279570     0.08500
C964        C  0.27227082  0.55318415  0.68310004    -0.05300
C965        C  0.29162814  0.55285553  0.68193020    -0.06000
C966        C  0.30172610  0.52022932  0.67002700    -0.15600
C967        C  0.29219115  0.48642974  0.65937189    -0.01200
C968        C  0.27280201  0.48716036  0.65979467    -0.08700
C969        C  0.26196125  0.58817741  0.69819631     0.65600
H970        H  0.29910134  0.57823308  0.69045380     0.11000
C971        C  0.30231929  0.45041879  0.64602225     0.64000
H972        H  0.26519662  0.46208330  0.65095703     0.08400
F973        F  0.21338607  0.50019215  0.76077382    -0.19100
F974        F  0.19572356  0.46010221  0.72875888    -0.15300
F975        F  0.18779853  0.52340754  0.73448623    -0.18800
F976        F  0.25541379  0.50821085  0.59038392    -0.22200
F977        F  0.25438588  0.57088522  0.60727731    -0.23700
F978        F  0.23235478  0.54698973  0.57168700    -0.17700
F979        F  0.29033734  0.42188915  0.63493413    -0.20100
F980        F  0.31314297  0.43523452  0.67348572    -0.21300
F981        F  0.31328842  0.45974184  0.61695583    -0.18500
F982        F  0.27373028  0.61788296  0.70719031    -0.18600
F983        F  0.25266910  0.57756983  0.72905347    -0.22400
F984        F  0.24943183  0.60229603  0.67314239    -0.24000
C985        C  0.38166429  0.51339636  0.48018677    -0.10800
C986        C  0.36674509  0.49499039  0.46378563     0.11800
C987        C  0.35242866  0.48037646  0.48546156    -0.02600
C988        C  0.35301292  0.48696459  0.52296006    -0.05400
C989        C  0.36745998  0.50721315  0.53928629    -0.16100
C990        C  0.38233533  0.51978489  0.51775663     0.02800
C991        C  0.36669813  0.49031999  0.42386501     0.12700
C992        C  0.33657933  0.45806686  0.46902351     0.63300
H993        H  0.34191803  0.47697814  0.53981894     0.12800
C994        C  0.39907623  0.53889351  0.53425504     0.55500
H995        H  0.39273156  0.52312009  0.46312042     0.08500
C996        C  0.36066830  0.52021387  0.40035671    -0.05300
C997        C  0.35907826  0.51206572  0.36319528    -0.06000
C998        C  0.36375229  0.47545691  0.34885600    -0.15600
C999        C  0.37143427  0.44669718  0.37229479    -0.01200
C1000       C  0.37264489  0.45480452  0.40950494    -0.08700
C1001       C  0.35601721  0.56050655  0.41448506     0.65600
H1002       H  0.35381564  0.53422955  0.34509720     0.11000
C1003       C  0.37866423  0.40782159  0.35861198     0.64000
H1004       H  0.37786648  0.43301086  0.42806365     0.08400
F1005       F  0.41320285  0.54204136  0.50954111    -0.19100
F1006       F  0.40558637  0.51705543  0.56303134    -0.15300
F1007       F  0.39447230  0.57577615  0.54610703    -0.18800
F1008       F  0.34317759  0.42470958  0.45256148    -0.22200
F1009       F  0.32752882  0.48071598  0.44362482    -0.23700
F1010       F  0.32393658  0.44725076  0.49484157    -0.17700
F1011       F  0.38809443  0.38750126  0.38526805    -0.20100
F1012       F  0.39069969  0.41350231  0.33033602    -0.21300
F1013       F  0.36422575  0.38518851  0.34716724    -0.18500
F1014       F  0.34997469  0.58500837  0.38719501    -0.18600
F1015       F  0.37149252  0.57654953  0.42991667    -0.22400
F1016       F  0.34233088  0.55855384  0.44017711    -0.24000
C1017       C  0.26743132  0.03529610  0.68848097    -0.10800
C1018       C  0.25859592  0.00370717  0.70419828     0.11800
C1019       C  0.26925933  0.97257088  0.71811277    -0.02600
C1020       C  0.28856509  0.97476220  0.71685745    -0.05400
C1021       C  0.29763276  0.00577019  0.70007630    -0.16100
C1022       C  0.28676055  0.03672763  0.68542794     0.02800
C1023       C  0.23812419  0.00252818  0.70240813     0.12700
C1024       C  0.26027738  0.93618670  0.73235603     0.63300
H1025       H  0.29672176  0.95087486  0.72745089     0.12800
C1026       C  0.29516956  0.07050379  0.66542084     0.55500
H1027       H  0.25888176  0.05824252  0.67721071     0.08500
C1028       C  0.22674500  0.02154974  0.72799648    -0.05300
C1029       C  0.20752595  0.02077562  0.72308978    -0.06000
C1030       C  0.19932245  0.00222898  0.69327773    -0.15600
C1031       C  0.21084872  0.98264247  0.66791811    -0.01200
C1032       C  0.23006800  0.98337294  0.67303732    -0.08700
C1033       C  0.23487627  0.04351422  0.75975253     0.65600
H1034       H  0.19870224  0.03571687  0.74222398     0.11000
C1035       C  0.20318083  0.96210904  0.63490210     0.64000
H1036       H  0.23913124  0.96942644  0.65368040     0.08400
F1037       F  0.28207758  0.09799364  0.65538743    -0.19100
F1038       F  0.30359816  0.05716892  0.63424914    -0.15300
F1039       F  0.30789549  0.08867842  0.68727359    -0.18800
F1040       F  0.25118013  0.91775615  0.70447507    -0.22200
F1041       F  0.24780287  0.94550985  0.75914466    -0.23700
F1042       F  0.27305419  0.91031785  0.74669934    -0.17700
F1043       F  0.21697689  0.94718751  0.61301450    -0.20100
F1044       F  0.19276468  0.98776650  0.61438654    -0.21300
F1045       F  0.19240969  0.93159750  0.64572066    -0.18500
F1046       F  0.22136890  0.05912948  0.78190210    -0.18600
F1047       F  0.24545870  0.07354490  0.74723834    -0.22400
F1048       F  0.24577834  0.01899746  0.78042816    -0.24000
C1049       C  0.35325724  0.00326137  0.50208900    -0.10800
C1050       C  0.36813027  0.98228014  0.48766689     0.11800
C1051       C  0.38138530  0.96538700  0.51104063    -0.02600
C1052       C  0.37881731  0.96880768  0.54857654    -0.05400
C1053       C  0.36377167  0.98942094  0.56335538    -0.16100
C1054       C  0.35074102  0.00723834  0.53961457     0.02800
C1055       C  0.36969416  0.97999691  0.44774951     0.12700
C1056       C  0.39825359  0.94429384  0.49635117     0.63300
H1057       H  0.38877378  0.95565862  0.56678259     0.12800
C1058       C  0.33404684  0.02971762  0.55331543     0.55500
H1059       H  0.34358682  0.01661500  0.48340468     0.08500
C1060       C  0.35926339  0.95379065  0.42690585    -0.05300
C1061       C  0.36031830  0.95567980  0.38899452    -0.06000
C1062       C  0.37109787  0.98339652  0.37144991    -0.15600
C1063       C  0.38218768  0.00851546  0.39263909    -0.01200
C1064       C  0.38108503  0.00646627  0.43051705    -0.08700
C1065       C  0.34650220  0.92506415  0.44460154     0.65600
H1066       H  0.35192894  0.93664325  0.37275370     0.11000
C1067       C  0.39514270  0.03754580  0.37591597     0.64000
H1068       H  0.38877018  0.02640610  0.44719613     0.08400
F1069       F  0.32260490  0.04174820  0.52539132    -0.19100
F1070       F  0.33966194  0.06242108  0.57172536    -0.15300
F1071       F  0.32388200  0.00660361  0.57600692    -0.18800
F1072       F  0.40902849  0.96997260  0.47757807    -0.22200
F1073       F  0.39302775  0.91479722  0.47334422    -0.23700
F1074       F  0.40889688  0.92815062  0.52368781    -0.17700
F1075       F  0.38513612  0.06760015  0.36042521    -0.20100
F1076       F  0.40591183  0.01947259  0.34997078    -0.21300
F1077       F  0.40684340  0.05338321  0.40141164    -0.18500
F1078       F  0.33915899  0.89953335  0.41969472    -0.18600
F1079       F  0.33213923  0.94479949  0.46106945    -0.22400
F1080       F  0.35594538  0.90354927  0.47029866    -0.24000
C1081       C  0.37916470  0.80145893  0.71107611    -0.10800
C1082       C  0.36433558  0.78000035  0.69788439     0.11800
C1083       C  0.34804884  0.79930525  0.68643236    -0.02600
C1084       C  0.34764605  0.83991935  0.68621481    -0.05400
C1085       C  0.36272536  0.86164418  0.69784683    -0.16100
C1086       C  0.37865099  0.84230536  0.71141225     0.02800
C1087       C  0.36645349  0.73740900  0.69408763     0.12700
C1088       C  0.33121775  0.77710333  0.67418899     0.63300
H1089       H  0.33545370  0.85519920  0.67669989     0.12800
C1090       C  0.39520816  0.86444528  0.72493377     0.55500
H1091       H  0.39130854  0.78583579  0.72033135     0.08500
C1092       C  0.37506117  0.72064113  0.66353493    -0.05300
C1093       C  0.37443111  0.68025656  0.65901227    -0.06000
C1094       C  0.36532121  0.65630372  0.68370235    -0.15600
C1095       C  0.35703702  0.67330579  0.71481215    -0.01200
C1096       C  0.35813968  0.71368215  0.71971541    -0.08700
C1097       C  0.38460609  0.74544430  0.63557058     0.65600
H1098       H  0.38090526  0.66709849  0.63563703     0.11000
C1099       C  0.34629363  0.64969606  0.74188516     0.64000
H1100       H  0.35182835  0.72746446  0.74296558     0.08400
F1101       F  0.40114291  0.88955600  0.69847860    -0.19100
F1102       F  0.40975249  0.83990435  0.73379733    -0.15300
F1103       F  0.39049321  0.88530546  0.75555015    -0.18800
F1104       F  0.32446263  0.75596991  0.70276779    -0.22200
F1105       F  0.33577072  0.75214849  0.64624879    -0.23700
F1106       F  0.31728249  0.80162889  0.66211195    -0.17700
F1107       F  0.33791164  0.67288339  0.76776526    -0.20100
F1108       F  0.35800930  0.62407135  0.75955381    -0.21300
F1109       F  0.33263306  0.62945823  0.72421964    -0.18500
F1110       F  0.39099387  0.72361105  0.60669053    -0.18600
F1111       F  0.39946585  0.76354746  0.65130895    -0.22400
F1112       F  0.37254762  0.77327895  0.62215360    -0.24000
C1113       C  0.42609608  0.51199325  0.14454556    -0.10800
C1114       C  0.42561431  0.55251083  0.14280831     0.11800
C1115       C  0.40982261  0.57309324  0.15479976    -0.02600
C1116       C  0.39552402  0.55225594  0.17104202    -0.05400
C1117       C  0.39636214  0.51165303  0.17449651    -0.16100
C1118       C  0.41162332  0.49096264  0.15967831     0.02800
C1119       C  0.44173905  0.57198945  0.12680851     0.12700
C1120       C  0.40799704  0.61665515  0.14979610     0.63300
H1121       H  0.38359876  0.56765324  0.18146598     0.12800
C1122       C  0.41242286  0.44694261  0.15819653     0.55500
H1123       H  0.43806996  0.49692055  0.13390805     0.08500
C1124       C  0.45774234  0.57937646  0.14698114    -0.05300
C1125       C  0.47336816  0.59321935  0.12903856    -0.06000
C1126       C  0.47387349  0.60008342  0.09108373    -0.15600
C1127       C  0.45681125  0.59421559  0.07143515    -0.01200
C1128       C  0.44151764  0.57934115  0.08980545    -0.08700
C1129       C  0.45874907  0.57040209  0.18720818     0.65600
H1130       H  0.48535128  0.59586090  0.14475428     0.11000
C1131       C  0.45353271  0.60057726  0.03108251     0.64000
H1132       H  0.42917614  0.57248601  0.07489106     0.08400
F1133       F  0.41466600  0.43193853  0.19254716    -0.19100
F1134       F  0.42694534  0.43347464  0.13735957    -0.15300
F1135       F  0.39636688  0.43317518  0.14302735    -0.18800
F1136       F  0.40810790  0.62532678  0.11334848    -0.22200
F1137       F  0.42245728  0.63520381  0.16646197    -0.23700
F1138       F  0.39178835  0.63119004  0.16427966    -0.17700
F1139       F  0.45467692  0.56540024  0.01323193    -0.20100
F1140       F  0.46555007  0.62598802  0.01567558    -0.21300
F1141       F  0.43605885  0.61591440  0.02533361    -0.18500
F1142       F  0.47510342  0.58232097  0.20261608    -0.18600
F1143       F  0.45736629  0.53091293  0.19245796    -0.22400
F1144       F  0.44454758  0.58903214  0.20520241    -0.24000
C1145       C  0.44972194  0.41469968  0.80766796    -0.10800
C1146       C  0.45332724  0.43500465  0.77610760     0.11800
C1147       C  0.47169251  0.44244775  0.76686230    -0.02600
C1148       C  0.48571685  0.43298065  0.79183314    -0.05400
C1149       C  0.48220306  0.41743950  0.82661035    -0.16100
C1150       C  0.46371380  0.40356237  0.83227169     0.02800
C1151       C  0.43739572  0.45010246  0.75468066     0.12700
C1152       C  0.47643042  0.46129451  0.73108683     0.63300
H1153       H  0.49952515  0.43883918  0.78382141     0.12800
C1154       C  0.45779987  0.37699020  0.86301179     0.55500
H1155       H  0.43549134  0.40830257  0.81314717     0.08500
C1156       C  0.42673554  0.42626124  0.73174167    -0.05300
C1157       C  0.41176745  0.44307796  0.71272641    -0.06000
C1158       C  0.40692302  0.48237955  0.71693610    -0.15600
C1159       C  0.41689507  0.50547943  0.74175042    -0.01200
C1160       C  0.43213895  0.48895823  0.75985777    -0.08700
C1161       C  0.43082206  0.38313655  0.72820529     0.65600
H1162       H  0.40364949  0.42559350  0.69450135     0.11000
C1163       C  0.41097344  0.54687595  0.75035683     0.64000
H1164       H  0.44005976  0.50622830  0.77862099     0.08400
F1165       F  0.46496820  0.34035455  0.85740085    -0.19100
F1166       F  0.43889900  0.37304217  0.86451547    -0.15300
F1167       F  0.46316425  0.39088367  0.89626698    -0.18800
F1168       F  0.46957386  0.49883388  0.73031445    -0.22200
F1169       F  0.46881898  0.44059282  0.70288048    -0.23700
F1170       F  0.49523153  0.46255088  0.72561362    -0.17700
F1171       F  0.39245547  0.54809041  0.75876474    -0.20100
F1172       F  0.41409640  0.57043805  0.72093820    -0.21300
F1173       F  0.42054263  0.56166135  0.77960031    -0.18500
F1174       F  0.42026008  0.36627211  0.70142392    -0.18600
F1175       F  0.42700540  0.36489080  0.76046276    -0.22400
F1176       F  0.44911123  0.37679158  0.71978616    -0.24000
C1177       C  0.48012774  0.49141543  0.93069133    -0.10800
C1178       C  0.49560822  0.49232623  0.95265557     0.11800
C1179       C  0.50974812  0.46488199  0.94700480    -0.02600
C1180       C  0.50829108  0.43902785  0.91760018    -0.05400
C1181       C  0.49390155  0.44063743  0.89119519    -0.16100
C1182       C  0.47910395  0.46902587  0.89864165     0.02800
C1183       C  0.49597515  0.52191778  0.98220220     0.12700
C1184       C  0.52632839  0.46288794  0.97211613     0.63300
H1185       H  0.51917152  0.41778322  0.91424259     0.12800
C1186       C  0.46279724  0.48154392  0.87447188     0.55500
H1187       H  0.46899579  0.51093134  0.93829093     0.08500
C1188       C  0.49976846  0.56136637  0.97604603    -0.05300
C1189       C  0.49811132  0.58802713  0.00489060    -0.06000
C1190       C  0.49355083  0.57695898  0.04071292    -0.15600
C1191       C  0.49074237  0.53561026  0.04644425    -0.01200
C1192       C  0.49095897  0.51027084  0.01657716    -0.08700
C1193       C  0.50539524  0.57539256  0.93884942     0.65600
H1194       H  0.50002450  0.61803637  0.99859538     0.11000
C1195       C  0.48704035  0.51510179  0.08236063     0.64000
H1196       H  0.48736749  0.48012070  0.02004253     0.08400
F1197       F  0.46757496  0.48545100  0.83901699    -0.19100
F1198       F  0.45589060  0.51784484  0.88385794    -0.15300
F1199       F  0.44839707  0.45641264  0.87812046    -0.18800
F1200       F  0.52083309  0.45193827  0.00626178    -0.22200
F1201       F  0.53451425  0.49873882  0.97427173    -0.23700
F1202       F  0.53943715  0.43637146  0.96025188    -0.17700
F1203       F  0.46831568  0.51208185  0.08727772    -0.20100
F1204       F  0.49475011  0.53262591  0.11194874    -0.21300
F1205       F  0.49446976  0.47788729  0.08194363    -0.18500
F1206       F  0.50980268  0.61429489  0.93895647    -0.18600
F1207       F  0.49114790  0.57028567  0.91458230    -0.22400
F1208       F  0.52066038  0.55466588  0.92717831    -0.24000
C1209       C  0.45653698  0.89322177  0.10150188    -0.10800
C1210       C  0.45798525  0.91836949  0.13080095     0.11800
C1211       C  0.47541313  0.93304007  0.13974688    -0.02600
C1212       C  0.49054499  0.92421057  0.11716134    -0.05400
C1213       C  0.48892219  0.90381199  0.08382095    -0.16100
C1214       C  0.47124797  0.88552486  0.07749639     0.02800
C1215       C  0.44085073  0.92826773  0.15150912     0.12700
C1216       C  0.47791677  0.95886207  0.17264313     0.63300
H1217       H  0.50365249  0.93457942  0.12575948     0.12800
C1218       C  0.46691101  0.85663210  0.04720222     0.55500
H1219       H  0.44327757  0.88005459  0.09729398     0.08500
C1220       C  0.42759941  0.95534240  0.13834700    -0.05300
C1221       C  0.41180597  0.96321068  0.15899166    -0.06000
C1222       C  0.40856584  0.94526791  0.19238887    -0.15600
C1223       C  0.42145577  0.91675487  0.20487023    -0.01200
C1224       C  0.43730526  0.90862490  0.18389338    -0.08700
C1225       C  0.43021118  0.97686545  0.10305339     0.65600
H1226       H  0.40186602  0.98436988  0.14921483     0.11000
C1227       C  0.41892110  0.89554768  0.24034327     0.64000
H1228       H  0.44726491  0.88703478  0.19280469     0.08400
F1229       F  0.44816147  0.85229490  0.04227334    -0.19100
F1230       F  0.47393513  0.82055872  0.05603904    -0.15300
F1231       F  0.47362807  0.86832358  0.01432997    -0.18800
F1232       F  0.47367072  0.93865229  0.20362240    -0.22200
F1233       F  0.46644593  0.99102930  0.16994999    -0.23700
F1234       F  0.49578954  0.97169477  0.17599037    -0.17700
F1235       F  0.43305596  0.86916028  0.24696259    -0.20100
F1236       F  0.40265887  0.87530993  0.23950055    -0.21300
F1237       F  0.41856117  0.92188456  0.26856454    -0.18500
F1238       F  0.41550817  0.00137253  0.09514553    -0.18600
F1239       F  0.43189233  0.95084962  0.07481983    -0.22400
F1240       F  0.44577400  0.99914687  0.10540139    -0.24000
C1241       C  0.51237391  0.78766095  0.07257159    -0.10800
C1242       C  0.50936366  0.77237289  0.03818468     0.11800
C1243       C  0.50668613  0.79819500  0.00906776    -0.02600
C1244       C  0.50744773  0.83865027  0.01553739    -0.05400
C1245       C  0.50843029  0.85512520  0.05089406    -0.16100
C1246       C  0.51152854  0.82775385  0.08031083     0.02800
C1247       C  0.50478897  0.73008621  0.03677524     0.12700
C1248       C  0.50154034  0.78317480  0.97179638     0.63300
H1249       H  0.50505589  0.85720195  0.99269312     0.12800
C1250       C  0.51129163  0.83727250  0.12089446     0.55500
H1251       H  0.51355513  0.76695104  0.09446741     0.08500
C1252       C  0.51811940  0.70017131  0.03789853    -0.05300
C1253       C  0.51253268  0.66214350  0.04595878    -0.06000
C1254       C  0.49458439  0.65254555  0.05848576    -0.15600
C1255       C  0.48131217  0.68506748  0.05913603    -0.01200
C1256       C  0.48662096  0.72094319  0.04415574    -0.08700
C1257       C  0.53828181  0.70839658  0.03121200     0.65600
H1258       H  0.52279208  0.63929367  0.04410553     0.11000
C1259       C  0.46186539  0.68860663  0.07569849     0.64000
H1260       H  0.47669699  0.74461950  0.04230029     0.08400
F1261       F  0.52025777  0.80866731  0.14076849    -0.19100
F1262       F  0.49331373  0.83918690  0.13269572    -0.15300
F1263       F  0.51993617  0.87108633  0.12975170    -0.18800
F1264       F  0.48477863  0.76490293  0.97337282    -0.22200
F1265       F  0.51468109  0.75703986  0.95974011    -0.23700
F1266       F  0.50007830  0.81269280  0.94662782    -0.17700
F1267       F  0.45799673  0.66414437  0.10356152    -0.20100
F1268       F  0.44880197  0.68475152  0.04882525    -0.21300
F1269       F  0.45933899  0.72513466  0.09080675    -0.18500
F1270       F  0.54914939  0.67525000  0.03394469    -0.18600
F1271       F  0.54458453  0.73487013  0.05628234    -0.22400
F1272       F  0.54048055  0.72336585  0.99698015    -0.24000
C1273       C  0.45031025  0.11160736  0.81768486    -0.10800
C1274       C  0.45178273  0.08108137  0.79314700     0.11800
C1275       C  0.46853299  0.06037913  0.79047697    -0.02600
C1276       C  0.48313298  0.07039933  0.81361865    -0.05400
C1277       C  0.48267656  0.10344792  0.83685277    -0.16100
C1278       C  0.46458051  0.12079066  0.84204152     0.02800
C1279       C  0.43472848  0.06842206  0.77427973     0.12700
C1280       C  0.47114887  0.02865030  0.76237786     0.63300
H1281       H  0.49543021  0.05240757  0.81340283     0.12800
C1282       C  0.45824526  0.14120547  0.87658977     0.55500
H1283       H  0.43704194  0.12611234  0.81983598     0.08500
C1284       C  0.42219724  0.04315573  0.79104044    -0.05300
C1285       C  0.40642440  0.03184466  0.77177408    -0.06000
C1286       C  0.40257973  0.04523728  0.73661443    -0.15600
C1287       C  0.41469032  0.07239364  0.72069548    -0.01200
C1288       C  0.43062304  0.08334069  0.73994019    -0.08700
C1289       C  0.42545275  0.02821021  0.82923313     0.65600
H1290       H  0.39708162  0.01161693  0.78398790     0.11000
C1291       C  0.41079658  0.09055442  0.68404865     0.64000
H1292       H  0.44016313  0.10351619  0.72821162     0.08400
F1293       F  0.43938790  0.13887447  0.88114155    -0.19100
F1294       F  0.46231770  0.18006272  0.87629541    -0.15300
F1295       F  0.46599175  0.12337051  0.90620875    -0.18800
F1296       F  0.46808812  0.04389515  0.72831784    -0.22200
F1297       F  0.45893902  0.99903471  0.76813778    -0.23700
F1298       F  0.48878803  0.01305951  0.76318388    -0.17700
F1299       F  0.42280773  0.12020659  0.67651261    -0.20100
F1300       F  0.39314117  0.10600598  0.68337598    -0.21300
F1301       F  0.41266771  0.06293988  0.65715213    -0.18500
F1302       F  0.41175241  0.00345109  0.84012740    -0.18600
F1303       F  0.42582849  0.05890346  0.85324888    -0.22400
F1304       F  0.44199736  0.00818388  0.83117253    -0.24000
C1305       C  0.50163844  0.21849925  0.90601591    -0.10800
C1306       C  0.49784850  0.24245763  0.87597451     0.11800
C1307       C  0.49253699  0.22310991  0.84365976    -0.02600
C1308       C  0.49560003  0.18305300  0.84050225    -0.05400
C1309       C  0.49899917  0.15805855  0.87038172    -0.16100
C1310       C  0.49972408  0.17738503  0.90522734     0.02800
C1311       C  0.50092562  0.28634617  0.87663873     0.12700
C1312       C  0.48262915  0.24226000  0.81195456     0.63300
H1313       H  0.49373621  0.17060369  0.81386951     0.12800
C1314       C  0.49741331  0.15990954  0.94276896     0.55500
H1315       H  0.50564292  0.23170109  0.93112192     0.08500
C1316       C  0.49521214  0.31299344  0.90407829    -0.05300
C1317       C  0.49673991  0.35353115  0.89773336    -0.06000
C1318       C  0.50031942  0.36945547  0.86303994    -0.15600
C1319       C  0.50612165  0.34153614  0.83573329    -0.01200
C1320       C  0.50880453  0.30230567  0.84569361    -0.08700
C1321       C  0.48699954  0.30017906  0.93973916     0.65600
H1322       H  0.49325670  0.37272242  0.91967410     0.11000
C1323       C  0.50750363  0.34943400  0.79498326     0.64000
H1324       H  0.51482074  0.28206923  0.82665764     0.08400
F1325       F  0.48236575  0.17762831  0.95898263    -0.19100
F1326       F  0.51270741  0.16744584  0.96382246    -0.15300
F1327       F  0.49438830  0.12087488  0.94348195    -0.18800
F1328       F  0.49443381  0.24484786  0.78290482    -0.22200
F1329       F  0.47567797  0.27855729  0.82027533    -0.23700
F1330       F  0.46782014  0.21988240  0.80176282    -0.17700
F1331       F  0.51551616  0.31870613  0.77642185    -0.20100
F1332       F  0.51797502  0.38102516  0.78700787    -0.21300
F1333       F  0.49005545  0.35431143  0.78076114    -0.18500
F1334       F  0.47748453  0.33017249  0.95655523    -0.18600
F1335       F  0.50089568  0.28821679  0.96292259    -0.22400
F1336       F  0.47467613  0.27057533  0.93433530    -0.24000
C1337       C  0.52165500  0.03735302  0.93189719    -0.10800
C1338       C  0.50818871  0.00883355  0.93121895     0.11800
C1339       C  0.49286192  0.01512217  0.90867160    -0.02600
C1340       C  0.49055017  0.05094623  0.89132882    -0.05400
C1341       C  0.50439539  0.07997495  0.88844434    -0.16100
C1342       C  0.52027946  0.07252267  0.91175732     0.02800
C1343       C  0.50748466  0.97939503  0.96123991     0.12700
C1344       C  0.47815382  0.98494154  0.90209282     0.63300
H1345       H  0.47705920  0.05483636  0.87978698     0.12800
C1346       C  0.53538497  0.10052037  0.92173339     0.55500
H1347       H  0.53290616  0.03337394  0.95087015     0.08500
C1348       C  0.52000697  0.94830954  0.96594716    -0.05300
C1349       C  0.51795354  0.92359111  0.99607829    -0.06000
C1350       C  0.50297591  0.92590020  0.02094757    -0.15600
C1351       C  0.48900398  0.95575345  0.01273825    -0.01200
C1352       C  0.49262033  0.98250447  0.98475221    -0.08700
C1353       C  0.53545716  0.94100390  0.93928106     0.65600
H1354       H  0.52869630  0.90226485  0.00104080     0.11000
C1355       C  0.46986559  0.96183934  0.02979624     0.64000
H1356       H  0.48338891  0.00674528  0.97974896     0.08400
F1357       F  0.55191119  0.08746864  0.90757812    -0.19100
F1358       F  0.53723457  0.10247562  0.95897806    -0.15300
F1359       F  0.53196088  0.13738981  0.91047704    -0.18800
F1360       F  0.46171102  0.99764238  0.91690614    -0.22200
F1361       F  0.48265116  0.94900278  0.91632488    -0.23700
F1362       F  0.47577711  0.98012798  0.86524872    -0.17700
F1363       F  0.46077688  0.99470364  0.01714481    -0.20100
F1364       F  0.47064192  0.96686135  0.06632353    -0.21300
F1365       F  0.45855650  0.93165822  0.02119312    -0.18500
F1366       F  0.54436092  0.90591786  0.94562676    -0.18600
F1367       F  0.54827037  0.97001973  0.94191338    -0.22400
F1368       F  0.52844593  0.94014798  0.90448836    -0.24000
C1369       C  0.72184884  0.48940059  0.19672391    -0.10800
C1370       C  0.73254180  0.51117588  0.22065611     0.11800
C1371       C  0.72388291  0.53278173  0.24851142    -0.02600
C1372       C  0.70474770  0.52962124  0.25296818    -0.05400
C1373       C  0.69400866  0.50687204  0.22968358    -0.16100
C1374       C  0.70264830  0.48683044  0.20062351     0.02800
C1375       C  0.75287114  0.51000096  0.21631977     0.12700
C1376       C  0.73479830  0.55934694  0.27308588     0.63300
H1377       H  0.69796684  0.54510720  0.27475266     0.12800
C1378       C  0.69186998  0.46165134  0.17459998     0.55500
H1379       H  0.72881124  0.47381377  0.17522288     0.08500
C1380       C  0.76384574  0.47966113  0.23095686    -0.05300
C1381       C  0.78306589  0.48091059  0.22671483    -0.06000
C1382       C  0.79165627  0.51156400  0.20862691    -0.15600
C1383       C  0.78044684  0.54160114  0.19327111    -0.01200
C1384       C  0.76120531  0.53987746  0.19718560    -0.08700
C1385       C  0.75522764  0.44615248  0.25102682     0.65600
H1386       H  0.79158646  0.45811037  0.23828338     0.11000
C1387       C  0.78847641  0.57554796  0.17288524     0.64000
H1388       H  0.75240856  0.56242148  0.18593623     0.08400
F1389       F  0.68227878  0.43404550  0.19359331    -0.19100
F1390       F  0.70322474  0.44242455  0.15034994    -0.15300
F1391       F  0.67969608  0.48450094  0.15493962    -0.18800
F1392       F  0.74217209  0.58890427  0.25286437    -0.22200
F1393       F  0.74890620  0.53889857  0.28982926    -0.23700
F1394       F  0.72391615  0.57592859  0.29972209    -0.17700
F1395       F  0.77496287  0.59814193  0.15648543    -0.20100
F1396       F  0.80014905  0.56208335  0.14609987    -0.21300
F1397       F  0.79800488  0.59904764  0.19654863    -0.18500
F1398       F  0.76837903  0.42125961  0.26555497    -0.18600
F1399       F  0.74439102  0.42515035  0.22753532    -0.22400
F1400       F  0.74445148  0.45997774  0.27904930    -0.24000
C1401       C  0.55566348  0.54010563  0.18832949    -0.10800
C1402       C  0.55861097  0.56935502  0.16300875     0.11800
C1403       C  0.57634390  0.58500508  0.15922177    -0.02600
C1404       C  0.59092190  0.56905821  0.17982901    -0.05400
C1405       C  0.58830515  0.53797079  0.20378532    -0.16100
C1406       C  0.57017227  0.52368151  0.20868974     0.02800
C1407       C  0.54297145  0.58097098  0.13925546     0.12700
C1408       C  0.57978998  0.61823283  0.13336020     0.63300
H1409       H  0.60464274  0.58022274  0.17658993     0.12800
C1410       C  0.56585332  0.49118564  0.23489580     0.55500
H1411       H  0.54185255  0.52914012  0.19086884     0.08500
C1412       C  0.53889234  0.56021350  0.10770403    -0.05300
C1413       C  0.52406255  0.57275353  0.08630104    -0.06000
C1414       C  0.51064229  0.60113230  0.09754004    -0.15600
C1415       C  0.51593835  0.62345182  0.12912579    -0.01200
C1416       C  0.53193085  0.61269173  0.14879072    -0.08700
C1417       C  0.54990354  0.52405541  0.09696263     0.65600
H1418       H  0.52326042  0.55897864  0.06036562     0.11000
C1419       C  0.50640159  0.65945328  0.14426209     0.64000
H1420       H  0.53576672  0.62901765  0.17269373     0.08400
F1421       F  0.54712150  0.48552984  0.23807292    -0.19100
F1422       F  0.57258202  0.50000555  0.26890252    -0.15300
F1423       F  0.57366124  0.45677840  0.22282918    -0.18800
F1424       F  0.56920210  0.65006288  0.14325771    -0.22200
F1425       F  0.57520205  0.60765156  0.09846778    -0.23700
F1426       F  0.59803650  0.62905768  0.13358044    -0.17700
F1427       F  0.50377624  0.65510833  0.18106640    -0.20100
F1428       F  0.48957856  0.66727078  0.12950444    -0.21300
F1429       F  0.51745929  0.69114556  0.13868553    -0.18500
F1430       F  0.54392288  0.50842096  0.06455620    -0.18600
F1431       F  0.54806056  0.49597060  0.12321742    -0.22400
F1432       F  0.56829039  0.53260224  0.09336575    -0.24000
C1433       C  0.72886278  0.01621662  0.19544309    -0.10800
C1434       C  0.73986806  0.00121963  0.22343171     0.11800
C1435       C  0.73152495  0.98797667  0.25553106    -0.02600
C1436       C  0.71224586  0.99001423  0.25839093    -0.05400
C1437       C  0.70112529  0.00504949  0.23044838    -0.16100
C1438       C  0.70954721  0.01839460  0.19829241     0.02800
C1439       C  0.76018609  0.00026339  0.21879764     0.12700
C1440       C  0.74299816  0.97267468  0.28698392     0.63300
H1441       H  0.70567373  0.98045206  0.28294664     0.12800
C1442       C  0.69835493  0.03617747  0.16764511     0.55500
H1443       H  0.73561943  0.02646365  0.17133880     0.08500
C1444       C  0.76934156  0.96876471  0.20196960    -0.05300
C1445       C  0.78867641  0.96748150  0.20248675    -0.06000
C1446       C  0.79919176  0.99692543  0.21861315    -0.15600
C1447       C  0.78985408  0.03030136  0.23263209    -0.01200
C1448       C  0.77043733  0.03109706  0.23254893    -0.08700
C1449       C  0.75868572  0.93663615  0.18359027     0.65600
H1450       H  0.79573288  0.94274681  0.19067445     0.11000
C1451       C  0.80001202  0.06465107  0.24834510     0.64000
H1452       H  0.76298636  0.05539013  0.24429593     0.08400
F1453       F  0.70942781  0.05081025  0.14074423    -0.19100
F1454       F  0.68753980  0.06635561  0.18062436    -0.15300
F1455       F  0.68727070  0.00833954  0.15230300    -0.18800
F1456       F  0.75405982  0.00175262  0.30015753    -0.22200
F1457       F  0.75397902  0.94193585  0.27585007    -0.23700
F1458       F  0.73213645  0.95988608  0.31504117    -0.17700
F1459       F  0.78810339  0.09430547  0.25864522    -0.20100
F1460       F  0.81178646  0.07944727  0.22275284    -0.21300
F1461       F  0.80989490  0.05322029  0.27858329    -0.18500
F1462       F  0.77023528  0.90827482  0.16942779    -0.18600
F1463       F  0.74830671  0.95199077  0.15556592    -0.22400
F1464       F  0.74710519  0.91917539  0.20795061    -0.24000
C1465       C  0.62357148  0.30033578  0.22244706    -0.10800
C1466       C  0.63752212  0.27886438  0.23973772     0.11800
C1467       C  0.65165469  0.29814954  0.25868588    -0.02600
C1468       C  0.65113781  0.33881117  0.26017458    -0.05400
C1469       C  0.63713463  0.36044262  0.24309623    -0.16100
C1470       C  0.62294746  0.34106416  0.22420250     0.02800
C1471       C  0.63688159  0.23601950  0.23832220     0.12700
C1472       C  0.66717857  0.27582075  0.27727341     0.63300
H1473       H  0.66179356  0.35416296  0.27458839     0.12800
C1474       C  0.60675295  0.36301478  0.20762680     0.55500
H1475       H  0.61299826  0.28476123  0.20801500     0.08500
C1476       C  0.62577249  0.21469977  0.26210583    -0.05300
C1477       C  0.62720380  0.17409112  0.26162149    -0.06000
C1478       C  0.63963251  0.15427662  0.23885196    -0.15600
C1479       C  0.65053685  0.17595592  0.21446572    -0.01200
C1480       C  0.64854969  0.21657356  0.21416858    -0.08700
C1481       C  0.61269323  0.23480024  0.28828191     0.65600
H1482       H  0.61887561  0.15750162  0.27997204     0.11000
C1483       C  0.66454418  0.15705821  0.18943895     0.64000
H1484       H  0.65673488  0.23385789  0.19610000     0.08400
F1485       F  0.59859472  0.38651956  0.23350661    -0.19100
F1486       F  0.59350393  0.33822693  0.19445744    -0.15300
F1487       F  0.61265880  0.38552511  0.17922130    -0.18800
F1488       F  0.67761965  0.25627960  0.25178783    -0.22200
F1489       F  0.66009802  0.24936428  0.30131236    -0.23700
F1490       F  0.67870497  0.30009703  0.29634502    -0.17700
F1491       F  0.67220655  0.18352708  0.16602590    -0.20100
F1492       F  0.65627414  0.12874779  0.16874405    -0.21300
F1493       F  0.67867799  0.14084953  0.20972621    -0.18500
F1494       F  0.60406295  0.20866305  0.31064435    -0.18600
F1495       F  0.59926985  0.25491340  0.26921882    -0.22400
F1496       F  0.62220069  0.26043416  0.30990911    -0.24000
C1497       C  0.57479442  0.93125819  0.17096369    -0.10800
C1498       C  0.57436779  0.94432997  0.13509353     0.11800
C1499       C  0.58802316  0.97003750  0.12302157    -0.02600
C1500       C  0.60165869  0.98183206  0.14756560    -0.05400
C1501       C  0.60197217  0.96966767  0.18385074    -0.16100
C1502       C  0.58837556  0.94337528  0.19576235     0.02800
C1503       C  0.55828047  0.93403673  0.11212945     0.12700
C1504       C  0.58805048  0.98576412  0.08461776     0.63300
H1505       H  0.61208309  0.00165259  0.13859640     0.12800
C1506       C  0.58761880  0.92913092  0.23452021     0.55500
H1507       H  0.56398278  0.91217415  0.17961120     0.08500
C1508       C  0.55708000  0.89884970  0.09311855    -0.05300
C1509       C  0.54101527  0.89151976  0.07292993    -0.06000
C1510       C  0.52516031  0.91667201  0.07301594    -0.15600
C1511       C  0.52875082  0.95549691  0.08604675    -0.01200
C1512       C  0.54418025  0.96146304  0.10850733    -0.08700
C1513       C  0.57244544  0.86855490  0.09517144     0.65600
H1514       H  0.54094203  0.86498992  0.05760872     0.11000
C1515       C  0.51849687  0.99219109  0.07421657     0.64000
H1516       H  0.54601619  0.98888947  0.12222949     0.08400
F1517       F  0.57268961  0.90551526  0.24035705    -0.19100
F1518       F  0.58613993  0.96035834  0.25787436    -0.15300
F1519       F  0.60336150  0.90786191  0.24250101    -0.18800
F1520       F  0.57238923  0.00789729  0.07841090    -0.22200
F1521       F  0.58863628  0.95559421  0.06006879    -0.23700
F1522       F  0.60307475  0.00894024  0.07830778    -0.17700
F1523       F  0.50027407  0.99112039  0.08276537    -0.20100
F1524       F  0.52531983  0.02522707  0.09049738    -0.21300
F1525       F  0.52066114  0.99720600  0.03760343    -0.18500
F1526       F  0.56877130  0.83633192  0.07413787    -0.18600
F1527       F  0.57466562  0.85635991  0.13048463    -0.22400
F1528       F  0.58875617  0.88401275  0.08336382    -0.24000
C1529       C  0.73109681  0.45423165  0.67383855    -0.10800
C1530       C  0.74191201  0.48449991  0.68712136     0.11800
C1531       C  0.73329783  0.51763317  0.70237123    -0.02600
C1532       C  0.71401163  0.51950336  0.70343877    -0.05400
C1533       C  0.70301627  0.48991825  0.68910610    -0.16100
C1534       C  0.71170488  0.45613914  0.67466325     0.02800
C1535       C  0.76218831  0.48210023  0.68215742     0.12700
C1536       C  0.74439898  0.55155836  0.71632228     0.63300
H1537       H  0.70732136  0.54506287  0.71456148     0.12800
C1538       C  0.70077739  0.42295908  0.65885037     0.55500
H1539       H  0.73806169  0.42943604  0.66187915     0.08500
C1540       C  0.77385314  0.46058001  0.70552594    -0.05300
C1541       C  0.79293310  0.46017274  0.69894357    -0.06000
C1542       C  0.80067596  0.48033345  0.66973857    -0.15600
C1543       C  0.78876961  0.50163174  0.64613874    -0.01200
C1544       C  0.76972128  0.50182245  0.65283916    -0.08700
C1545       C  0.76612348  0.43797039  0.73706256     0.65600
H1546       H  0.80198344  0.44362530  0.71656434     0.11000
C1547       C  0.79580630  0.52326814  0.61337784     0.64000
H1548       H  0.76037645  0.51748994  0.63508854     0.08400
F1549       F  0.71206256  0.39380422  0.64524790    -0.19100
F1550       F  0.68980924  0.43641897  0.63089010    -0.15300
F1551       F  0.68990077  0.40692982  0.68529480    -0.18800
F1552       F  0.75331082  0.56905437  0.68792636    -0.22200
F1553       F  0.75728777  0.53882083  0.74129784    -0.23700
F1554       F  0.73337756  0.57931150  0.73292395    -0.17700
F1555       F  0.78165342  0.54011888  0.59348540    -0.20100
F1556       F  0.80520934  0.49792390  0.59082334    -0.21300
F1557       F  0.80732350  0.55257413  0.62442507    -0.18500
F1558       F  0.77985493  0.41983064  0.75708105    -0.18600
F1559       F  0.75441282  0.40977835  0.72440630    -0.22400
F1560       F  0.75648597  0.46263868  0.75982076    -0.24000
C1561       C  0.61387717  0.49304001  0.43005109    -0.10800
C1562       C  0.62861815  0.51006483  0.44820679     0.11800
C1563       C  0.64289423  0.52746241  0.42839946    -0.02600
C1564       C  0.64217658  0.52595718  0.39049003    -0.05400
C1565       C  0.62783568  0.50731269  0.37219496    -0.16100
C1566       C  0.61303080  0.49188769  0.39216335     0.02800
C1567       C  0.62909985  0.50785049  0.48808569     0.12700
C1568       C  0.65900511  0.54666370  0.44722912     0.63300
H1569       H  0.65332245  0.53776884  0.37486271     0.12800
C1570       C  0.59631644  0.47452103  0.37392484     0.55500
H1571       H  0.60317937  0.47984379  0.44592431     0.08500
C1572       C  0.61909104  0.53406263  0.50998580    -0.05300
C1573       C  0.62134611  0.53182822  0.54763826    -0.06000
C1574       C  0.63310087  0.50404671  0.56395900    -0.15600
C1575       C  0.64229121  0.47626267  0.54164023    -0.01200
C1576       C  0.63995844  0.47871877  0.50396918    -0.08700
C1577       C  0.60608198  0.56411493  0.49355113     0.65600
H1578       H  0.61399482  0.55231218  0.56463215     0.11000
C1579       C  0.65504793  0.44503219  0.55677091     0.64000
H1580       H  0.64703664  0.45848038  0.48625160     0.08400
F1581       F  0.58191064  0.47050614  0.39789718    -0.19100
F1582       F  0.60074273  0.43825640  0.36030350    -0.15300
F1583       F  0.59026046  0.49832610  0.34615107    -0.18800
F1584       F  0.66906223  0.51935653  0.46649089    -0.22200
F1585       F  0.65267021  0.57500448  0.47070296    -0.23700
F1586       F  0.67069686  0.56395567  0.42285212    -0.17700
F1587       F  0.66235716  0.42149035  0.52993456    -0.20100
F1588       F  0.64551769  0.42159969  0.58023582    -0.21300
F1589       F  0.66954124  0.46217036  0.57463503    -0.18500
F1590       F  0.59865076  0.58859459  0.51949409    -0.18600
F1591       F  0.59177028  0.54568478  0.47624146    -0.22400
F1592       F  0.61527826  0.58656341  0.46878832    -0.24000
C1593       C  0.53799362  0.47360129  0.80796281    -0.10800
C1594       C  0.55219709  0.44625304  0.80907688     0.11800
C1595       C  0.55073480  0.41437548  0.83230789    -0.02600
C1596       C  0.53366868  0.40756731  0.84871398    -0.05400
C1597       C  0.51761914  0.43120344  0.84248304    -0.16100
C1598       C  0.52143715  0.46899478  0.82706124     0.02800
C1599       C  0.56902316  0.45430537  0.78798321     0.12700
C1600       C  0.56710886  0.38757876  0.83942587     0.63300
H1601       H  0.53298352  0.38275212  0.86622643     0.12800
C1602       C  0.50978618  0.50605577  0.83057320     0.55500
H1603       H  0.54024644  0.49948624  0.79214618     0.08500
C1604       C  0.57045209  0.44445198  0.75098763    -0.05300
C1605       C  0.58625204  0.45539800  0.73199979    -0.06000
C1606       C  0.60033088  0.47676520  0.74848134    -0.15600
C1607       C  0.59853688  0.48767945  0.78542050    -0.01200
C1608       C  0.58288152  0.47591057  0.80452021    -0.08700
C1609       C  0.55513608  0.42327942  0.73150119     0.65600
H1610       H  0.58758951  0.44778777  0.70372608     0.11000
C1611       C  0.61247101  0.51314933  0.80435973     0.64000
H1612       H  0.58106610  0.48419932  0.83253560     0.08400
F1613       F  0.51995491  0.53868922  0.82295720    -0.19100
F1614       F  0.50385124  0.51132896  0.86530372    -0.15300
F1615       F  0.49523309  0.50641930  0.80677748    -0.18800
F1616       F  0.58146759  0.40856478  0.85372940    -0.22200
F1617       F  0.57277160  0.37037080  0.80753604    -0.23700
F1618       F  0.56298694  0.35852167  0.86368057    -0.17700
F1619       F  0.60684864  0.52363598  0.83876944    -0.20100
F1620       F  0.61484886  0.54681780  0.78485237    -0.21300
F1621       F  0.62908756  0.49349759  0.80751835    -0.18500
F1622       F  0.55918208  0.41699120  0.69542280    -0.18600
F1623       F  0.53900958  0.44489490  0.73315678    -0.22400
F1624       F  0.55240278  0.38772024  0.74751751    -0.24000
C1625       C  0.77014463  0.95740299  0.67074570    -0.10800
C1626       C  0.76172605  0.98971875  0.68718821     0.11800
C1627       C  0.77293048  0.01861586  0.70266174    -0.02600
C1628       C  0.79221209  0.01516084  0.69931184    -0.05400
C1629       C  0.80077741  0.98377516  0.68123763    -0.16100
C1630       C  0.78945200  0.95383893  0.66721483     0.02800
C1631       C  0.74112708  0.99254944  0.68725357     0.12700
C1632       C  0.76455003  0.05302785  0.72263575     0.63300
H1633       H  0.80077864  0.03772007  0.71032859     0.12800
C1634       C  0.79744852  0.91802001  0.64884794     0.55500
H1635       H  0.76130249  0.93521111  0.65987865     0.08500
C1636       C  0.73097040  0.00390322  0.65618722    -0.05300
C1637       C  0.71158550  0.00385022  0.65747743    -0.06000
C1638       C  0.70189169  0.99326465  0.68876239    -0.15600
C1639       C  0.71217835  0.98346008  0.72040214    -0.01200
C1640       C  0.73161314  0.98272670  0.71875374    -0.08700
C1641       C  0.74058602  0.01583755  0.62165445     0.65600
H1642       H  0.70379871  0.01165710  0.63352212     0.11000
C1643       C  0.70290854  0.97299245  0.75565274     0.64000
H1644       H  0.73965202  0.97396502  0.74210385     0.08400
F1645       F  0.78410800  0.89087257  0.64139908    -0.19100
F1646       F  0.81046276  0.90068087  0.67112626    -0.15300
F1647       F  0.80544636  0.92810591  0.61644845    -0.18800
F1648       F  0.75579303  0.04030542  0.75337988    -0.22200
F1649       F  0.75193490  0.07215021  0.70076747    -0.23700
F1650       F  0.77773136  0.07938128  0.73308853    -0.17700
F1651       F  0.69198787  0.94098214  0.75059585    -0.20100
F1652       F  0.69226343  0.00396631  0.76754576    -0.21300
F1653       F  0.71553437  0.96416397  0.78260860    -0.18500
F1654       F  0.72823470  0.02856672  0.59554042    -0.18600
F1655       F  0.75034726  0.98469868  0.60757507    -0.22400
F1656       F  0.75255790  0.04566226  0.62883588    -0.24000
C1657       C  0.63291807  0.03837013  0.50623727    -0.10800
C1658       C  0.62977178  0.00570031  0.48470819     0.11800
C1659       C  0.62759109  0.96914741  0.50113426    -0.02600
C1660       C  0.62859925  0.96663724  0.53901563    -0.05400
C1661       C  0.63220234  0.99913604  0.56098887    -0.16100
C1662       C  0.63415443  0.03599677  0.54419461     0.02800
C1663       C  0.63117879  0.00991373  0.44490790     0.12700
C1664       C  0.62469106  0.93276449  0.47864820     0.63300
H1665       H  0.62705063  0.93864843  0.55167256     0.12800
C1666       C  0.63797908  0.07270067  0.56553562     0.55500
H1667       H  0.63496368  0.06575877  0.49271277     0.08500
C1668       C  0.61630800  0.02268679  0.42300039    -0.05300
C1669       C  0.61885274  0.02448103  0.38532157    -0.06000
C1670       C  0.63584153  0.01501146  0.36934262    -0.15600
C1671       C  0.65110404  0.00532494  0.39179456    -0.01200
C1672       C  0.64837056  0.00250515  0.42925486    -0.08700
C1673       C  0.59798055  0.03476543  0.43934571     0.65600
H1674       H  0.60751834  0.03320099  0.36795194     0.11000
C1675       C  0.67038658  0.99980676  0.37678773     0.64000
H1676       H  0.65970538  0.99437799  0.44688661     0.08400
F1677       F  0.63895459  0.10495512  0.54347331    -0.19100
F1678       F  0.65462449  0.06894188  0.58349350    -0.15300
F1679       F  0.62401603  0.07945686  0.59010288    -0.18800
F1680       F  0.63961947  0.92626752  0.45635995    -0.22200
F1681       F  0.60905552  0.93697685  0.45763069    -0.23700
F1682       F  0.62264414  0.90025057  0.50001966    -0.17700
F1683       F  0.67486208  0.03127073  0.35561938    -0.20100
F1684       F  0.67135165  0.96632858  0.35628734    -0.21300
F1685       F  0.68344194  0.99674782  0.40401941    -0.18500
F1686       F  0.58568444  0.04791412  0.41330900    -0.18600
F1687       F  0.60052991  0.06441439  0.46395075    -0.22400
F1688       F  0.59022206  0.00371957  0.45679486    -0.24000
C1689       C  0.65701847  0.79025601  0.71528219    -0.10800
C1690       C  0.64280994  0.76905348  0.69962143     0.11800
C1691       C  0.62757680  0.78847844  0.68375859    -0.02600
C1692       C  0.62759930  0.82916590  0.68240217    -0.05400
C1693       C  0.64222473  0.85071104  0.69666275    -0.16100
C1694       C  0.65714945  0.83095897  0.71387108     0.02800
C1695       C  0.64459423  0.72634265  0.69900067     0.12700
C1696       C  0.61148206  0.76619505  0.66818591     0.63300
H1697       H  0.61620163  0.84452230  0.66974693     0.12800
C1698       C  0.67352381  0.85221385  0.72940750     0.55500
H1699       H  0.66830765  0.77437101  0.72776606     0.08500
C1700       C  0.65377921  0.70685947  0.67060212    -0.05300
C1701       C  0.65326008  0.66628319  0.66949274    -0.06000
C1702       C  0.64492172  0.64471724  0.69698257    -0.15600
C1703       C  0.63747573  0.66440224  0.72751603    -0.01200
C1704       C  0.63708886  0.70520428  0.72747000    -0.08700
C1705       C  0.66443421  0.72885674  0.64216564     0.65600
H1706       H  0.65964737  0.65099632  0.64714637     0.11000
C1707       C  0.62980519  0.64294274  0.75975862     0.64000
H1708       H  0.63081866  0.72112509  0.74957285     0.08400
F1709       F  0.68712767  0.82692011  0.74158857    -0.19100
F1710       F  0.66794038  0.87475444  0.75838734    -0.15300
F1711       F  0.68115549  0.87539744  0.70314221    -0.18800
F1712       F  0.60369705  0.74388270  0.69488903    -0.22200
F1713       F  0.61740324  0.74219193  0.64051386    -0.23700
F1714       F  0.59795248  0.79072565  0.65446849    -0.17700
F1715       F  0.64356980  0.62065005  0.77564075    -0.20100
F1716       F  0.61559202  0.61947210  0.74870813    -0.21300
F1717       F  0.62303134  0.66806168  0.78587398    -0.18500
F1718       F  0.67246209  0.70418030  0.61705753    -0.18600
F1719       F  0.67829742  0.74948046  0.65869598    -0.22400
F1720       F  0.65293116  0.75435685  0.62388541    -0.24000
C1721       C  0.56556235  0.02463585  0.76899304    -0.10800
C1722       C  0.56420045  0.06509993  0.77060971     0.11800
C1723       C  0.57831479  0.08755162  0.75512762    -0.02600
C1724       C  0.59326527  0.06842940  0.73822441    -0.05400
C1725       C  0.59461918  0.02776429  0.73600337    -0.16100
C1726       C  0.58036278  0.00535062  0.75170232     0.02800
C1727       C  0.54807494  0.08288426  0.78975654     0.12700
C1728       C  0.57779472  0.13155842  0.75675931     0.63300
H1729       H  0.60409387  0.08538737  0.72641937     0.12800
C1730       C  0.58057698  0.96129933  0.75081931     0.55500
H1731       H  0.55471350  0.00819772  0.78139783     0.08500
C1732       C  0.53075114  0.08893032  0.77288365    -0.05300
C1733       C  0.51638872  0.10618409  0.79330190    -0.06000
C1734       C  0.51835913  0.11344449  0.83096178    -0.15600
C1735       C  0.53695630  0.12071990  0.84103629    -0.01200
C1736       C  0.55056326  0.09695577  0.82492352    -0.08700
C1737       C  0.52724889  0.07594514  0.73426860     0.65600
H1738       H  0.50350469  0.11251399  0.77993198     0.11000
C1739       C  0.54367566  0.16256462  0.84303819     0.64000
H1740       H  0.56435276  0.09646224  0.83613404     0.08400
F1741       F  0.57897625  0.94845981  0.71553598    -0.19100
F1742       F  0.56615490  0.94592498  0.77013954    -0.15300
F1743       F  0.59676734  0.94720363  0.76587969    -0.18800
F1744       F  0.58008401  0.14365655  0.79205384    -0.22200
F1745       F  0.56118297  0.14565113  0.74371530    -0.23700
F1746       F  0.59161233  0.14767036  0.73631617    -0.17700
F1747       F  0.56109589  0.16374226  0.85822260    -0.20100
F1748       F  0.53267871  0.18699516  0.86301300    -0.21300
F1749       F  0.54446065  0.17760140  0.80845497    -0.18500
F1750       F  0.50937387  0.08400080  0.72334899    -0.18600
F1751       F  0.53015067  0.03638801  0.73142724    -0.22400
F1752       F  0.53899554  0.09457455  0.71103190    -0.24000
loop_ 
_geom_bond_atom_site_label_1 
_geom_bond_atom_site_label_2 
_geom_bond_distance 
_geom_bond_site_symmetry_2 
_ccdc_geom_bond_type 
O1            C4   1.265       .  A
O1           Cd6   2.456       .  S
C2           O11   1.266   1_565  A
C2            O7   1.266       .  A
C2         C1661   1.498       .  S
O3            C9   1.269       .  A
O3           Cd6   2.536   1_545  S
C4           O12   1.265       .  A
C4         C1693   1.485       .  S
C5           O10   1.267       .  A
C5            O8   1.264       .  A
C5         C1638   1.506       .  S
Cd6          O13   2.474       .  S
Cd6          O12   2.466       .  S
Cd6          O11   2.479   1_565  S
Cd6           O7   2.455       .  S
Cd6          O10   2.527       .  S
Cd6           O8   2.482       .  S
C9           O13   1.259   1_545  A
C9         C1725   1.504       .  S
O14          C17   1.265       .  A
O14         Cd19   2.441       .  S
C15          O24   1.264       .  A
C15          O20   1.265       .  A
C15        C1702   1.484       .  S
O16          C22   1.264       .  A
O16         Cd19   2.488       .  S
C17          O25   1.266       .  A
C17        C1574   1.492       .  S
C18          O23   1.262       .  A
C18          O21   1.267       .  A
C18        C1533   1.492       .  S
Cd19         O26   2.469       .  S
Cd19         O25   2.469       .  S
Cd19         O24   2.464       .  S
Cd19         O20   2.436       .  S
Cd19         O23   2.431       .  S
Cd19         O21   2.515       .  S
C22          O26   1.264       .  A
C22        C1606   1.489       .  S
O27          C30   1.265       .  A
O27         Cd32   2.460       .  S
C28          O37   1.265   1_545  A
C28          O33   1.265       .  A
C28        C1670   1.484       .  S
O29          C35   1.263   1_545  A
O29         Cd32   2.454       .  S
C30          O38   1.262       .  A
C30        C1478   1.489       .  S
C31          O36   1.266       .  A
C31          O34   1.264       .  A
C31        C1437   1.488       .  S
Cd32         O39   2.528   1_545  S
Cd32         O38   2.470       .  S
Cd32         O37   2.462   1_545  S
Cd32         O33   2.471       .  S
Cd32         O36   2.493       .  S
Cd32         O34   2.463       .  S
C35          O39   1.265       .  A
C35        C1501   1.496       .  S
O40          C43   1.264       .  A
O40         Cd45   2.462       .  S
C41          O50   1.267       .  A
C41          O46   1.262       .  A
C41        C1565   1.478       .  S
O42          C48   1.263       .  A
O42         Cd45   2.467       .  S
C43          O51   1.264       .  A
C43        C1469   1.477       .  S
C44          O49   1.268       .  A
C44          O47   1.260       .  A
C44        C1405   1.495       .  S
Cd45         O52   2.483       .  S
Cd45         O51   2.453       .  S
Cd45         O50   2.469       .  S
Cd45         O46   2.425       .  S
Cd45         O49   2.513       .  S
Cd45         O47   2.445       .  S
C48          O52   1.265       .  A
C48        C1373   1.488       .  S
C53        C1277   1.615       .  S
C53        C1309   1.587       .  S
C53        C1341   1.626       .  S
C53        C1734   1.616       .  S
C54        C1213   1.590       .  S
C54        C1245   1.602       .  S
C54        C1350   1.607       .  S
C54        C1510   1.616       .  S
C55        C1149   1.578       .  S
C55        C1181   1.605       .  S
C55        C1318   1.608       .  S
C55        C1597   1.612       .  S
C56        C1126   1.575       .  S
C56        C1190   1.598       .  S
C56        C1254   1.611       .  S
C56        C1414   1.615       .  S
O57          C60   1.265       .  A
O57         Cd62   2.484       .  S
C58          O67   1.266   1_565  A
C58          O63   1.266       .  A
C58        C1053   1.491       .  S
O59          C65   1.263   1_565  A
O59         Cd62   2.477       .  S
C60          O68   1.264       .  A
C60        C1085   1.479       .  S
C61          O66   1.266       .  A
C61          O64   1.261       .  A
C61        C1286   1.498       .  S
Cd62         O69   2.505   1_565  S
Cd62         O68   2.430       .  S
Cd62         O67   2.468   1_565  S
Cd62         O63   2.457       .  S
Cd62         O66   2.501   1_565  S
Cd62         O64   2.494   1_565  S
C65          O69   1.264       .  A
C65        C1021   1.503       .  S
O70          C73   1.267       .  A
O70         Cd75   2.443       .  S
C71          O80   1.265       .  A
C71          O76   1.261       .  A
C71         C989   1.483       .  S
O72          C78   1.261       .  A
O72         Cd75   2.466       .  S
C73          O81   1.267       .  A
C73        C1094   1.489       .  S
C74          O79   1.263       .  A
C74          O77   1.267       .  A
C74         C966   1.488       .  S
Cd75         O82   2.521       .  S
Cd75         O81   2.464       .  S
Cd75         O80   2.485       .  S
Cd75         O76   2.459       .  S
Cd75         O79   2.464       .  S
Cd75         O77   2.513       .  S
C78          O82   1.267       .  A
C78        C1158   1.485       .  S
O83          C86   1.263   1_545  A
O83         Cd88   2.432   1_545  S
C84          O93   1.263       .  A
C84          O89   1.266       .  A
C84         C925   1.487       .  S
O85          C91   1.265       .  A
O85         Cd88   2.544       .  S
C86          O94   1.270       .  A
C86        C1062   1.490       .  S
C87          O92   1.267       .  A
C87          O90   1.262       .  A
C87         C902   1.500       .  S
Cd88         O95   2.456       .  S
Cd88         O94   2.483       .  S
Cd88         O93   2.462   1_565  S
Cd88         O89   2.456   1_565  S
Cd88         O92   2.531       .  S
Cd88         O90   2.474       .  S
C91          O95   1.263       .  A
C91        C1222   1.503       .  S
O96          C99   1.260       .  A
O96        Cd101   2.453       .  S
C97         O106   1.266       .  A
C97         O102   1.265       .  A
C97         C934   1.492       .  S
O98         C104   1.263       .  A
O98        Cd101   2.495       .  S
C99         O107   1.267       .  A
C99         C998   1.492       .  S
C100        O105   1.266       .  A
C100        O103   1.261       .  A
C100       C1117   1.489       .  S
Cd101       O108   2.489       .  S
Cd101       O107   2.502       .  S
Cd101       O106   2.483       .  S
Cd101       O102   2.436       .  S
Cd101       O105   2.508       .  S
Cd101       O103   2.458       .  S
C104        O108   1.266       .  A
C104        C861   1.499       .  S
O109        C112   1.264       .  A
O109       Cd114   2.437       .  S
C110        O119   1.269   1_545  A
C110        O115   1.264       .  A
C110        C774   1.490       .  S
O111        C117   1.264   1_565  A
O111       Cd114   2.526   1_565  S
C112        O120   1.265       .  A
C112        C797   1.495       .  S
C113        O118   1.264   1_565  A
C113        O116   1.261       .  A
C113        C838   1.492       .  S
Cd114       O121   2.479       .  S
Cd114       O120   2.492       .  S
Cd114       O119   2.472   1_545  S
Cd114       O115   2.448       .  S
Cd114       O118   2.501       .  S
Cd114       O116   2.504   1_545  S
C117        O121   1.262       .  A
C117       C1030   1.497       .  S
O122        C125   1.267       .  A
O122       Cd127   2.480       .  S
C123        O132   1.266       .  A
C123        O128   1.263       .  A
C123        C806   1.486       .  S
O124        C130   1.267       .  A
O124       Cd127   2.490       .  S
C125        O133   1.262       .  A
C125        C701   1.491       .  S
C126        O131   1.267       .  A
C126        O129   1.262       .  A
C126        C742   1.497       .  S
Cd127       O134   2.464       .  S
Cd127       O133   2.467       .  S
Cd127       O132   2.481       .  S
Cd127       O128   2.447       .  S
Cd127       O131   2.502       .  S
Cd127       O129   2.462       .  S
C130        O134   1.263       .  A
C130        C957   1.492       .  S
O135        C138   1.265       .  A
O135       Cd140   2.449       .  S
C136        O145   1.264       .  A
C136        O141   1.266       .  A
C136        C646   1.482       .  S
O137        C143   1.268       .  A
O137       Cd140   2.498   1_545  S
C138        O146   1.266   1_565  A
C138        C765   1.490   1_565  S
C139        O144   1.269   1_565  A
C139        O142   1.260       .  A
C139        C893   1.496       .  S
Cd140       O147   2.441       .  S
Cd140       O146   2.480   1_565  S
Cd140       O145   2.468       .  S
Cd140       O141   2.442       .  S
Cd140       O144   2.525   1_565  S
Cd140       O142   2.447       .  S
C143        O147   1.261   1_545  A
C143        C678   1.490       .  S
O148        C151   1.265       .  A
O148       Cd153   2.452       .  S
C149        O158   1.268       .  A
C149        O154   1.262       .  A
C149        C710   1.493       .  S
O150        C156   1.262       .  A
O150       Cd153   2.491       .  S
C151        O159   1.264       .  A
C151        C637   1.478       .  S
C152        O157   1.268       .  A
C152        O155   1.264       .  A
C152        C870   1.495       .  S
Cd153       O160   2.488       .  S
Cd153       O159   2.458       .  S
Cd153       O158   2.499       .  S
Cd153       O154   2.440       .  S
Cd153       O157   2.511       .  S
Cd153       O155   2.457       .  S
C156        O160   1.264       .  A
C156        C614   1.498       .  S
C161        C509   1.611   1_455  S
C161        C541   1.600       .  S
C161        C582   1.595       .  S
C161        C829   1.607       .  S
C162        C445   1.592   1_455  S
C162        C477   1.577       .  S
C162        C573   1.607       .  S
C162        C669   1.611       .  S
C163        C381   1.611   1_455  S
C163        C422   1.593       .  S
C163        C550   1.625       .  S
C163        C733   1.604       .  S
C164        C349   1.607       .  S
C164        C413   1.622       .  S
C164        C486   1.572       .  S
C164        C605   1.599   1_655  S
O165        C168   1.262       .  A
O165       Cd170   2.442       .  S
C166        O175   1.265       .  A
C166        O171   1.263   1_565  A
C166        C294   1.494       .  S
O167        C173   1.270       .  A
O167       Cd170   2.552   1_565  S
C168        O176   1.269       .  A
C168        C317   1.483       .  S
C169        O174   1.265       .  A
C169        O172   1.267   1_565  A
C169       C1629   1.506       .  S
Cd170       O177   2.478   1_545  S
Cd170       O176   2.500       .  S
Cd170       O175   2.481   1_545  S
Cd170       O171   2.448       .  S
Cd170       O174   2.512   1_545  S
Cd170       O172   2.502       .  S
C173        O177   1.260       .  A
C173        C518   1.511       .  S
O178        C181   1.269       .  A
O178       Cd183   2.470       .  S
C179        O188   1.263       .  A
C179        O184   1.266       .  A
C179        C253   1.492       .  S
O180        C186   1.264       .  A
O180       Cd183   2.497       .  S
C181        O189   1.264       .  A
C181        C326   1.491       .  S
C182        O187   1.260       .  A
C182        O185   1.268       .  A
C182        C390   1.499       .  S
Cd183       O190   2.483       .  S
Cd183       O189   2.438       .  S
Cd183       O188   2.470       .  S
Cd183       O184   2.501       .  S
Cd183       O187   2.477       .  S
Cd183       O185   2.542       .  S
C186        O190   1.263       .  A
C186       C1542   1.497       .  S
O191        C194   1.264       .  A
O191       Cd196   2.446       .  S
C192        O201   1.266       .  A
C192        O197   1.265       .  A
C192        C230   1.487       .  S
O193        C199   1.264       .  A
O193       Cd196   2.461       .  S
C194        O202   1.266   1_565  A
C194        C285   1.481       .  S
C195        O200   1.264       .  A
C195        O198   1.263   1_545  A
C195        C454   1.490       .  S
Cd196       O203   2.513   1_565  S
Cd196       O202   2.468   1_565  S
Cd196       O201   2.442       .  S
Cd196       O197   2.471       .  S
Cd196       O200   2.481   1_565  S
Cd196       O198   2.473       .  S
C199        O203   1.265   1_565  A
C199       C1446   1.500       .  S
O204        C207   1.263       .  A
O204       Cd209   2.440       .  S
C205        O214   1.266       .  A
C205        O210   1.265       .  A
C205        C262   1.490       .  S
O206        C212   1.267       .  A
O206       Cd209   2.515       .  S
C207        O215   1.268       .  A
C207        C221   1.491       .  S
C208        O213   1.267       .  A
C208        O211   1.260       .  A
C208        C358   1.492       .  S
Cd209       O216   2.461       .  S
Cd209       O215   2.479       .  S
Cd209       O214   2.485       .  S
Cd209       O210   2.443       .  S
Cd209       O213   2.528       .  S
Cd209       O211   2.466       .  S
C212        O216   1.260       .  A
C212       C1382   1.497       .  S
C217        C218   1.399       .  A
C217        C222   1.407       .  A
C217        H227   1.083       .  S
C218        C223   1.482       .  S
C218        C219   1.412       .  A
C219        C224   1.519       .  S
C219        C220   1.407       .  A
C220        C221   1.409       .  A
C220        H225   1.082       .  S
C221        C222   1.425       .  A
C222        C226   1.520       .  S
C223        C228   1.415       .  A
C223        C232   1.401       .  A
C224        F240   1.383       .  S
C224        F241   1.382       .  S
C224        F242   1.384       .  S
C226        F237   1.385       .  S
C226        F238   1.384       .  S
C226        F239   1.383       .  S
C228        C233   1.521       .  S
C228        C229   1.403       .  A
C229        C230   1.406       .  A
C229        H234   1.083       .  S
C230        C231   1.423       .  A
C231        C235   1.519       .  S
C231        C232   1.409       .  A
C232        H236   1.083       .  S
C233        F246   1.385       .  S
C233        F247   1.382       .  S
C233        F248   1.382       .  S
C235        F243   1.384       .  S
C235        F244   1.383       .  S
C235        F245   1.385       .  S
C249        C250   1.401       .  A
C249        C254   1.410       .  A
C249        H259   1.083       .  S
C250        C255   1.486       .  S
C250        C251   1.414       .  A
C251        C256   1.521       .  S
C251        C252   1.408       .  A
C252        C253   1.409       .  A
C252        H257   1.083       .  S
C253        C254   1.422       .  A
C254        C258   1.518       .  S
C255        C260   1.413       .  A
C255        C264   1.402       .  A
C256        F272   1.382       .  S
C256        F273   1.382       .  S
C256        F274   1.384       .  S
C258        F269   1.385       .  S
C258        F270   1.383       .  S
C258        F271   1.383       .  S
C260        C265   1.520       .  S
C260        C261   1.405       .  A
C261        C262   1.408       .  A
C261        H266   1.083       .  S
C262        C263   1.422       .  A
C263        C267   1.519       .  S
C263        C264   1.410       .  A
C264        H268   1.083       .  S
C265        F278   1.385       .  S
C265        F279   1.382       .  S
C265        F280   1.382       .  S
C267        F275   1.384       .  S
C267        F276   1.383       .  S
C267        F277   1.385       .  S
C281        C282   1.401       .  A
C281        C286   1.405       .  A
C281        H291   1.083   1_565  S
C282        C287   1.481       .  S
C282        C283   1.414       .  A
C283        C288   1.519       .  S
C283        C284   1.406       .  A
C284        C285   1.407       .  A
C284        H289   1.083       .  S
C285        C286   1.419       .  A
C286        C290   1.520   1_565  S
C287        C292   1.412   1_565  A
C287        C296   1.399       .  A
C288        F304   1.382       .  S
C288        F305   1.382       .  S
C288        F306   1.385       .  S
C290        F301   1.385       .  S
C290        F302   1.384   1_545  S
C290        F303   1.382       .  S
C292        C297   1.522       .  S
C292        C293   1.405       .  A
C293        C294   1.411   1_545  A
C293        H298   1.082       .  S
C294        C295   1.425       .  A
C295        C299   1.519       .  S
C295        C296   1.408       .  A
C296        H300   1.083       .  S
C297        F310   1.384       .  S
C297        F311   1.382       .  S
C297        F312   1.382       .  S
C299        F307   1.385       .  S
C299        F308   1.383       .  S
C299        F309   1.383       .  S
C313        C314   1.400       .  A
C313        C318   1.406       .  A
C313        H323   1.083       .  S
C314        C319   1.484       .  S
C314        C315   1.415       .  A
C315        C320   1.519       .  S
C315        C316   1.409       .  A
C316        C317   1.405       .  A
C316        H321   1.083       .  S
C317        C318   1.421       .  A
C318        C322   1.520       .  S
C319        C324   1.415       .  A
C319        C328   1.399       .  A
C320        F336   1.382       .  S
C320        F337   1.382       .  S
C320        F338   1.384       .  S
C322        F333   1.385       .  S
C322        F334   1.384       .  S
C322        F335   1.382       .  S
C324        C329   1.520       .  S
C324        C325   1.406       .  A
C325        C326   1.408       .  A
C325        H330   1.083       .  S
C326        C327   1.425       .  A
C327        C331   1.520       .  S
C327        C328   1.408       .  A
C328        H332   1.083       .  S
C329        F342   1.385       .  S
C329        F343   1.382       .  S
C329        F344   1.382       .  S
C331        F339   1.383       .  S
C331        F340   1.383       .  S
C331        F341   1.385       .  S
C345        C346   1.392       .  A
C345        C350   1.416       .  A
C345        H355   1.082       .  S
C346        C351   1.496       .  S
C346        C347   1.408       .  A
C347        C352   1.523       .  S
C347        C348   1.408       .  A
C348        C349   1.426       .  A
C348        H353   1.070       .  S
C349        C350   1.460       .  A
C350        C354   1.535       .  S
C351        C356   1.418       .  A
C351        C360   1.402       .  A
C352        F368   1.382       .  S
C352        F369   1.383       .  S
C352        F370   1.385       .  S
C354        F365   1.385       .  S
C354        F366   1.380       .  S
C354        F367   1.375   1_554  S
C356        C361   1.519       .  S
C356        C357   1.411       .  A
C357        C358   1.406       .  A
C357        H362   1.083       .  S
C358        C359   1.422       .  A
C359        C363   1.519       .  S
C359        C360   1.411       .  A
C360        H364   1.083       .  S
C361        F374   1.384       .  S
C361        F375   1.382       .  S
C361        F376   1.383       .  S
C363        F371   1.384       .  S
C363        F372   1.384       .  S
C363        F373   1.382       .  S
C377        C378   1.397       .  A
C377        C382   1.422       .  A
C377        H387   1.082       .  S
C378        C383   1.499       .  S
C378        C379   1.406       .  A
C379        C384   1.521       .  S
C379        C380   1.407       .  A
C380        C381   1.431       .  A
C380        H385   1.081       .  S
C381        C382   1.456       .  A
C382        C386   1.528   1_655  S
C383        C388   1.418       .  A
C383        C392   1.401       .  A
C384        F400   1.382       .  S
C384        F401   1.381       .  S
C384        F402   1.385       .  S
C386        F397   1.385   1_455  S
C386        F398   1.376       .  S
C386        F399   1.379       .  S
C388        C393   1.519       .  S
C388        C389   1.415       .  A
C389        C390   1.407       .  A
C389        H394   1.083       .  S
C390        C391   1.425       .  A
C391        C395   1.520       .  S
C391        C392   1.411       .  A
C392        H396   1.083       .  S
C393        F406   1.385       .  S
C393        F407   1.382       .  S
C393        F408   1.381       .  S
C395        F403   1.382       .  S
C395        F404   1.383       .  S
C395        F405   1.385       .  S
C409        C410   1.391   1_455  A
C409        C414   1.419       .  A
C409        H419   1.083       .  S
C410        C415   1.496       .  S
C410        C411   1.401       .  A
C411        C416   1.524       .  S
C411        C412   1.408       .  A
C412        C413   1.435   1_556  A
C412        H417   1.068   1_556  S
C413        C414   1.463   1_654  A
C414        C418   1.533       .  S
C415        C420   1.410       .  A
C415        C424   1.391       .  A
C416        F432   1.383       .  S
C416        F433   1.381       .  S
C416        F434   1.385       .  S
C418        F429   1.378   1_556  S
C418        F430   1.386       .  S
C418        F431   1.365       .  S
C420        C425   1.522   1_655  S
C420        C421   1.413       .  A
C421        C422   1.423   1_655  A
C421        H426   1.072       .  S
C422        C423   1.460   1_455  A
C423        C427   1.529       .  S
C423        C424   1.413       .  A
C424        H428   1.084       .  S
C425        F438   1.383       .  S
C425        F439   1.383       .  S
C425        F440   1.380   1_455  S
C427        F435   1.386   1_655  S
C427        F436   1.370   1_655  S
C427        F437   1.380       .  S
C441        C442   1.390       .  A
C441        C446   1.408       .  A
C441        H451   1.086       .  S
C442        C447   1.482       .  S
C442        C443   1.404       .  A
C443        C448   1.522   1_545  S
C443        C444   1.404       .  A
C444        C445   1.429       .  A
C444        H449   1.078       .  S
C445        C446   1.456       .  A
C446        C450   1.530       .  S
C447        C452   1.414       .  A
C447        C456   1.399       .  A
C448        F464   1.382       .  S
C448        F465   1.381       .  S
C448        F466   1.385       .  S
C450        F461   1.387       .  S
C450        F462   1.382       .  S
C450        F463   1.362       .  S
C452        C457   1.522       .  S
C452        C453   1.407       .  A
C453        C454   1.408       .  A
C453        H458   1.083       .  S
C454        C455   1.424       .  A
C455        C459   1.519   1_545  S
C455        C456   1.408       .  A
C456        H460   1.083       .  S
C457        F470   1.384       .  S
C457        F471   1.382       .  S
C457        F472   1.382       .  S
C459        F467   1.383   1_565  S
C459        F468   1.383       .  S
C459        F469   1.385       .  S
C473        C474   1.399   1_655  A
C473        C478   1.419       .  A
C473        H483   1.081   1_554  S
C474        C479   1.497   1_455  S
C474        C475   1.411       .  A
C475        C480   1.520       .  S
C475        C476   1.407       .  A
C476        C477   1.419       .  A
C476        H481   1.073       .  S
C477        C478   1.448   1_455  A
C478        C482   1.529   1_554  S
C479        C484   1.411   1_554  A
C479        C488   1.395       .  A
C480        F496   1.380       .  S
C480        F497   1.382       .  S
C480        F498   1.385       .  S
C482        F493   1.380       .  S
C482        F494   1.385       .  S
C482        F495   1.375   1_556  S
C484        C489   1.519   1_655  S
C484        C485   1.414   1_556  A
C485        C486   1.423       .  A
C485        H490   1.077   1_554  S
C486        C487   1.454       .  A
C487        C491   1.534       .  S
C487        C488   1.412       .  A
C488        H492   1.083       .  S
C489        F502   1.385       .  S
C489        F503   1.381   1_455  S
C489        F504   1.382       .  S
C491        F499   1.381       .  S
C491        F500   1.374       .  S
C491        F501   1.386       .  S
C505        C506   1.392       .  A
C505        C510   1.411       .  A
C505        H515   1.086       .  S
C506        C511   1.497       .  S
C506        C507   1.409       .  A
C507        C512   1.517       .  S
C507        C508   1.413       .  A
C508        C509   1.425       .  A
C508        H513   1.073       .  S
C509        C510   1.453       .  A
C510        C514   1.528       .  S
C511        C516   1.420       .  A
C511        C520   1.400       .  A
C512        F528   1.382       .  S
C512        F529   1.383       .  S
C512        F530   1.385       .  S
C514        F525   1.367       .  S
C514        F526   1.386       .  S
C514        F527   1.381       .  S
C516        C521   1.519       .  S
C516        C517   1.412       .  A
C517        C518   1.410       .  A
C517        H522   1.084       .  S
C518        C519   1.431       .  A
C519        C523   1.520       .  S
C519        C520   1.413       .  A
C520        H524   1.083       .  S
C521        F534   1.384       .  S
C521        F535   1.383       .  S
C521        F536   1.382       .  S
C523        F531   1.383   1_565  S
C523        F532   1.383       .  S
C523        F533   1.385       .  S
C537        C538   1.391       .  A
C537        C542   1.419       .  A
C537        H547   1.082       .  S
C538        C543   1.500       .  S
C538        C539   1.403   1_455  A
C539        C544   1.521       .  S
C539        C540   1.413       .  A
C540        C541   1.426   1_655  A
C540        H545   1.066       .  S
C541        C542   1.467       .  A
C542        C546   1.542       .  S
C543        C548   1.407   1_455  A
C543        C552   1.394       .  A
C544        F560   1.383       .  S
C544        F561   1.381       .  S
C544        F562   1.384       .  S
C546        F557   1.387       .  S
C546        F558   1.376       .  S
C546        F559   1.374       .  S
C548        C553   1.528       .  S
C548        C549   1.410       .  A
C549        C550   1.438   1_655  A
C549        H554   1.071       .  S
C550        C551   1.457       .  A
C551        C555   1.521       .  S
C551        C552   1.419       .  A
C552        H556   1.085       .  S
C553        F566   1.384       .  S
C553        F567   1.383       .  S
C553        F568   1.380       .  S
C555        F563   1.384       .  S
C555        F564   1.385       .  S
C555        F565   1.360       .  S
C569        C570   1.397   1_545  A
C569        C574   1.419       .  A
C569        H579   1.082       .  S
C570        C575   1.502       .  S
C570        C571   1.409   1_455  A
C571        C576   1.522       .  S
C571        C572   1.408   1_566  A
C572        C573   1.427   1_655  A
C572        H577   1.073       .  S
C573        C574   1.453   1_554  A
C574        C578   1.531       .  S
C575        C580   1.404   1_455  A
C575        C584   1.401       .  A
C576        F592   1.382       .  S
C576        F593   1.381       .  S
C576        F594   1.385   1_556  S
C578        F589   1.380       .  S
C578        F590   1.385       .  S
C578        F591   1.376   1_556  S
C580        C585   1.524   1_565  S
C580        C581   1.402       .  A
C581        C582   1.428   1_655  A
C581        H586   1.079       .  S
C582        C583   1.463       .  A
C583        C587   1.540       .  S
C583        C584   1.428       .  A
C584        H588   1.082       .  S
C585        F598   1.385       .  S
C585        F599   1.382   1_655  S
C585        F600   1.383       .  S
C587        F595   1.386       .  S
C587        F596   1.370       .  S
C587        F597   1.379   1_455  S
C601        C602   1.389       .  A
C601        C606   1.411       .  A
C601        H611   1.086       .  S
C602        C607   1.488       .  S
C602        C603   1.404       .  A
C603        C608   1.519       .  S
C603        C604   1.407       .  A
C604        C605   1.433       .  A
C604        H609   1.081       .  S
C605        C606   1.464       .  A
C606        C610   1.538       .  S
C607        C612   1.413       .  A
C607        C616   1.402       .  A
C608        F624   1.382       .  S
C608        F625   1.382       .  S
C608        F626   1.385       .  S
C610        F621   1.388       .  S
C610        F622   1.363       .  S
C610        F623   1.381       .  S
C612        C617   1.519       .  S
C612        C613   1.408       .  A
C613        C614   1.410       .  A
C613        H618   1.082       .  S
C614        C615   1.425       .  A
C615        C619   1.520       .  S
C615        C616   1.411       .  A
C616        H620   1.083       .  S
C617        F630   1.384       .  S
C617        F631   1.382       .  S
C617        F632   1.382       .  S
C619        F627   1.385       .  S
C619        F628   1.383       .  S
C619        F629   1.383       .  S
C633        C634   1.400       .  A
C633        C638   1.405       .  A
C633        H643   1.083       .  S
C634        C639   1.479       .  S
C634        C635   1.413       .  A
C635        C640   1.519       .  S
C635        C636   1.405       .  A
C636        C637   1.406       .  A
C636        H641   1.083       .  S
C637        C638   1.419       .  A
C638        C642   1.520       .  S
C639        C644   1.414       .  A
C639        C648   1.401       .  A
C640        F656   1.383       .  S
C640        F657   1.382       .  S
C640        F658   1.384       .  S
C642        F653   1.385       .  S
C642        F654   1.383       .  S
C642        F655   1.384       .  S
C644        C649   1.521       .  S
C644        C645   1.401       .  A
C645        C646   1.404       .  A
C645        H650   1.083       .  S
C646        C647   1.422       .  A
C647        C651   1.519       .  S
C647        C648   1.409       .  A
C648        H652   1.083       .  S
C649        F662   1.385       .  S
C649        F663   1.382       .  S
C649        F664   1.382       .  S
C651        F659   1.382       .  S
C651        F660   1.383       .  S
C651        F661   1.385       .  S
C665        C666   1.387       .  A
C665        C670   1.411       .  A
C665        H675   1.083       .  S
C666        C671   1.483       .  S
C666        C667   1.402       .  A
C667        C672   1.522   1_545  S
C667        C668   1.405       .  A
C668        C669   1.432       .  A
C668        H673   1.074       .  S
C669        C670   1.460       .  A
C670        C674   1.533       .  S
C671        C676   1.412       .  A
C671        C680   1.398       .  A
C672        F688   1.382       .  S
C672        F689   1.381       .  S
C672        F690   1.385       .  S
C674        F685   1.386       .  S
C674        F686   1.372   1_455  S
C674        F687   1.374       .  S
C676        C681   1.519       .  S
C676        C677   1.409       .  A
C677        C678   1.408       .  A
C677        H682   1.083       .  S
C678        C679   1.427       .  A
C679        C683   1.522   1_545  S
C679        C680   1.405       .  A
C680        H684   1.083       .  S
C681        F694   1.384       .  S
C681        F695   1.383       .  S
C681        F696   1.381       .  S
C683        F691   1.383   1_565  S
C683        F692   1.383       .  S
C683        F693   1.385       .  S
C697        C698   1.400       .  A
C697        C702   1.409       .  A
C697        H707   1.083       .  S
C698        C703   1.484       .  S
C698        C699   1.414       .  A
C699        C704   1.521       .  S
C699        C700   1.406       .  A
C700        C701   1.407       .  A
C700        H705   1.083       .  S
C701        C702   1.425       .  A
C702        C706   1.520       .  S
C703        C708   1.413       .  A
C703        C712   1.398       .  A
C704        F720   1.382       .  S
C704        F721   1.381       .  S
C704        F722   1.384       .  S
C706        F717   1.382       .  S
C706        F718   1.385       .  S
C706        F719   1.384       .  S
C708        C713   1.520       .  S
C708        C709   1.410       .  A
C709        C710   1.410       .  A
C709        H714   1.083       .  S
C710        C711   1.426       .  A
C711        C715   1.521       .  S
C711        C712   1.406       .  A
C712        H716   1.083       .  S
C713        F726   1.384       .  S
C713        F727   1.383       .  S
C713        F728   1.382       .  S
C715        F723   1.384       .  S
C715        F724   1.383       .  S
C715        F725   1.385       .  S
C729        C730   1.391       .  A
C729        C734   1.413       .  A
C729        H739   1.086       .  S
C730        C735   1.489       .  S
C730        C731   1.403       .  A
C731        C736   1.520       .  S
C731        C732   1.408       .  A
C732        C733   1.431       .  A
C732        H737   1.075       .  S
C733        C734   1.466       .  A
C734        C738   1.543       .  S
C735        C740   1.417       .  A
C735        C744   1.399       .  A
C736        F752   1.382       .  S
C736        F753   1.382       .  S
C736        F754   1.385       .  S
C738        F749   1.387       .  S
C738        F750   1.381       .  S
C738        F751   1.367       .  S
C740        C745   1.521       .  S
C740        C741   1.409       .  A
C741        C742   1.409       .  A
C741        H746   1.082       .  S
C742        C743   1.425       .  A
C743        C747   1.519       .  S
C743        C744   1.408       .  A
C744        H748   1.083       .  S
C745        F758   1.385       .  S
C745        F759   1.381       .  S
C745        F760   1.382       .  S
C747        F755   1.385       .  S
C747        F756   1.383       .  S
C747        F757   1.384       .  S
C761        C762   1.401       .  A
C761        C766   1.409       .  A
C761        H771   1.083       .  S
C762        C767   1.484       .  S
C762        C763   1.413   1_545  A
C763        C768   1.520       .  S
C763        C764   1.405       .  A
C764        C765   1.408   1_565  A
C764        H769   1.083       .  S
C765        C766   1.423       .  A
C766        C770   1.519       .  S
C767        C772   1.414   1_545  A
C767        C776   1.400       .  A
C768        F784   1.382       .  S
C768        F785   1.382       .  S
C768        F786   1.384       .  S
C770        F781   1.385       .  S
C770        F782   1.383       .  S
C770        F783   1.383       .  S
C772        C777   1.520       .  S
C772        C773   1.405       .  A
C773        C774   1.406   1_565  A
C773        H778   1.083       .  S
C774        C775   1.426       .  A
C775        C779   1.521       .  S
C775        C776   1.409       .  A
C776        H780   1.083       .  S
C777        F790   1.384       .  S
C777        F791   1.382       .  S
C777        F792   1.382       .  S
C779        F787   1.383       .  S
C779        F788   1.384       .  S
C779        F789   1.385       .  S
C793        C794   1.401       .  A
C793        C798   1.412       .  A
C793        H803   1.083       .  S
C794        C799   1.484       .  S
C794        C795   1.413       .  A
C795        C800   1.522       .  S
C795        C796   1.402       .  A
C796        C797   1.409       .  A
C796        H801   1.082       .  S
C797        C798   1.426       .  A
C798        C802   1.519       .  S
C799        C804   1.414       .  A
C799        C808   1.400       .  A
C800        F816   1.382       .  S
C800        F817   1.383       .  S
C800        F818   1.384       .  S
C802        F813   1.384       .  S
C802        F814   1.385       .  S
C802        F815   1.383       .  S
C804        C809   1.519       .  S
C804        C805   1.407       .  A
C805        C806   1.407       .  A
C805        H810   1.083       .  S
C806        C807   1.422       .  A
C807        C811   1.520       .  S
C807        C808   1.406       .  A
C808        H812   1.083       .  S
C809        F822   1.384       .  S
C809        F823   1.382       .  S
C809        F824   1.383       .  S
C811        F819   1.385       .  S
C811        F820   1.384       .  S
C811        F821   1.383       .  S
C825        C826   1.389       .  A
C825        C830   1.412       .  A
C825        H835   1.082       .  S
C826        C831   1.494       .  S
C826        C827   1.407       .  A
C827        C832   1.520       .  S
C827        C828   1.412       .  A
C828        C829   1.432       .  A
C828        H833   1.073   1_455  S
C829        C830   1.453       .  A
C830        C834   1.525       .  S
C831        C836   1.418       .  A
C831        C840   1.403       .  A
C832        F848   1.382       .  S
C832        F849   1.382       .  S
C832        F850   1.385       .  S
C834        F845   1.378       .  S
C834        F846   1.386       .  S
C834        F847   1.366       .  S
C836        C841   1.520   1_565  S
C836        C837   1.409       .  A
C837        C838   1.406       .  A
C837        H842   1.083   1_565  S
C838        C839   1.422       .  A
C839        C843   1.519       .  S
C839        C840   1.412       .  A
C840        H844   1.083       .  S
C841        F854   1.385       .  S
C841        F855   1.381   1_545  S
C841        F856   1.382       .  S
C843        F851   1.385       .  S
C843        F852   1.383       .  S
C843        F853   1.382       .  S
C857        C858   1.401       .  A
C857        C862   1.413       .  A
C857        H867   1.083       .  S
C858        C863   1.491       .  S
C858        C859   1.415       .  A
C859        C864   1.521       .  S
C859        C860   1.407       .  A
C860        C861   1.408       .  A
C860        H865   1.082       .  S
C861        C862   1.426       .  A
C862        C866   1.519       .  S
C863        C868   1.414       .  A
C863        C872   1.402       .  A
C864        F880   1.382       .  S
C864        F881   1.382       .  S
C864        F882   1.384       .  S
C866        F877   1.385       .  S
C866        F878   1.383       .  S
C866        F879   1.383       .  S
C868        C873   1.519       .  S
C868        C869   1.409       .  A
C869        C870   1.409       .  A
C869        H874   1.083       .  S
C870        C871   1.423       .  A
C871        C875   1.518       .  S
C871        C872   1.411       .  A
C872        H876   1.083       .  S
C873        F886   1.385       .  S
C873        F887   1.382       .  S
C873        F888   1.382       .  S
C875        F883   1.385       .  S
C875        F884   1.383       .  S
C875        F885   1.383       .  S
C889        C890   1.400       .  A
C889        C894   1.409       .  A
C889        H899   1.083       .  S
C890        C895   1.493       .  S
C890        C891   1.417   1_565  A
C891        C896   1.518       .  S
C891        C892   1.412       .  A
C892        C893   1.408   1_545  A
C892        H897   1.083       .  S
C893        C894   1.426       .  A
C894        C898   1.521       .  S
C895        C900   1.416       .  A
C895        C904   1.403       .  A
C896        F912   1.382       .  S
C896        F913   1.381       .  S
C896        F914   1.385       .  S
C898        F909   1.382       .  S
C898        F910   1.385       .  S
C898        F911   1.384       .  S
C900        C905   1.521       .  S
C900        C901   1.410       .  A
C901        C902   1.409       .  A
C901        H906   1.083       .  S
C902        C903   1.424       .  A
C903        C907   1.518       .  S
C903        C904   1.414       .  A
C904        H908   1.083       .  S
C905        F918   1.385       .  S
C905        F919   1.382       .  S
C905        F920   1.381       .  S
C907        F915   1.385   1_565  S
C907        F916   1.383       .  S
C907        F917   1.383   1_565  S
C921        C922   1.400       .  A
C921        C926   1.408       .  A
C921        H931   1.083       .  S
C922        C927   1.482       .  S
C922        C923   1.413       .  A
C923        C928   1.520       .  S
C923        C924   1.404       .  A
C924        C925   1.407       .  A
C924        H929   1.083       .  S
C925        C926   1.424       .  A
C926        C930   1.520       .  S
C927        C932   1.412       .  A
C927        C936   1.400       .  A
C928        F944   1.382       .  S
C928        F945   1.383       .  S
C928        F946   1.385       .  S
C930        F941   1.385       .  S
C930        F942   1.383       .  S
C930        F943   1.383       .  S
C932        C937   1.521       .  S
C932        C933   1.403       .  A
C933        C934   1.409       .  A
C933        H938   1.082       .  S
C934        C935   1.425       .  A
C935        C939   1.519       .  S
C935        C936   1.410       .  A
C936        H940   1.083       .  S
C937        F950   1.384       .  S
C937        F951   1.382       .  S
C937        F952   1.383       .  S
C939        F947   1.383       .  S
C939        F948   1.383       .  S
C939        F949   1.385       .  S
C953        C954   1.401       .  A
C953        C958   1.410       .  A
C953        H963   1.083       .  S
C954        C959   1.490       .  S
C954        C955   1.416       .  A
C955        C960   1.520       .  S
C955        C956   1.408       .  A
C956        C957   1.407       .  A
C956        H961   1.083       .  S
C957        C958   1.423       .  A
C958        C962   1.519       .  S
C959        C964   1.414       .  A
C959        C968   1.403       .  A
C960        F976   1.382       .  S
C960        F977   1.382       .  S
C960        F978   1.385       .  S
C962        F973   1.384       .  S
C962        F974   1.382       .  S
C962        F975   1.384       .  S
C964        C969   1.519       .  S
C964        C965   1.409       .  A
C965        C966   1.406       .  A
C965        H970   1.083       .  S
C966        C967   1.420       .  A
C967        C971   1.518       .  S
C967        C968   1.411       .  A
C968        H972   1.083       .  S
C969        F982   1.384       .  S
C969        F983   1.382       .  S
C969        F984   1.382       .  S
C971        F979   1.385       .  S
C971        F980   1.382       .  S
C971        F981   1.383       .  S
C985        C986   1.401       .  A
C985        C990   1.408       .  A
C985        H995   1.083       .  S
C986        C991   1.486       .  S
C986        C987   1.417       .  A
C987        C992   1.520       .  S
C987        C988   1.406       .  A
C988        C989   1.404       .  A
C988        H993   1.083       .  S
C989        C990   1.420       .  A
C990        C994   1.519       .  S
C991        C996   1.415       .  A
C991       C1000   1.398       .  A
C992       F1008   1.382       .  S
C992       F1009   1.382       .  S
C992       F1010   1.385       .  S
C994       F1005   1.384       .  S
C994       F1006   1.384       .  S
C994       F1007   1.382       .  S
C996       C1001   1.519       .  S
C996        C997   1.408       .  A
C997        C998   1.407       .  A
C997       H1002   1.082       .  S
C998        C999   1.426       .  A
C999       C1003   1.520       .  S
C999       C1000   1.407       .  A
C1000      H1004   1.083       .  S
C1001      F1014   1.385       .  S
C1001      F1015   1.383       .  S
C1001      F1016   1.382       .  S
C1003      F1011   1.385       .  S
C1003      F1012   1.384       .  S
C1003      F1013   1.383       .  S
C1017      C1018   1.402       .  A
C1017      C1022   1.413       .  A
C1017      H1027   1.083       .  S
C1018      C1023   1.492       .  S
C1018      C1019   1.413   1_545  A
C1019      C1024   1.520       .  S
C1019      C1020   1.409       .  A
C1020      C1021   1.412   1_565  A
C1020      H1025   1.082       .  S
C1021      C1022   1.427       .  A
C1022      C1026   1.520       .  S
C1023      C1028   1.415       .  A
C1023      C1032   1.402   1_545  A
C1024      F1040   1.382       .  S
C1024      F1041   1.381       .  S
C1024      F1042   1.384       .  S
C1026      F1037   1.385       .  S
C1026      F1038   1.384       .  S
C1026      F1039   1.383       .  S
C1028      C1033   1.519       .  S
C1028      C1029   1.410       .  A
C1029      C1030   1.409       .  A
C1029      H1034   1.083       .  S
C1030      C1031   1.424   1_545  A
C1031      C1035   1.519       .  S
C1031      C1032   1.411       .  A
C1032      H1036   1.083       .  S
C1033      F1046   1.385       .  S
C1033      F1047   1.382       .  S
C1033      F1048   1.381       .  S
C1035      F1043   1.385       .  S
C1035      F1044   1.383       .  S
C1035      F1045   1.383       .  S
C1049      C1050   1.400   1_545  A
C1049      C1054   1.408       .  A
C1049      H1059   1.083       .  S
C1050      C1055   1.484       .  S
C1050      C1051   1.413       .  A
C1051      C1056   1.520       .  S
C1051      C1052   1.407       .  A
C1052      C1053   1.409       .  A
C1052      H1057   1.083       .  S
C1053      C1054   1.424   1_565  A
C1054      C1058   1.520       .  S
C1055      C1060   1.414       .  A
C1055      C1064   1.399   1_565  A
C1056      F1072   1.382       .  S
C1056      F1073   1.382       .  S
C1056      F1074   1.384       .  S
C1058      F1069   1.385       .  S
C1058      F1070   1.383       .  S
C1058      F1071   1.383       .  S
C1060      C1065   1.519       .  S
C1060      C1061   1.407       .  A
C1061      C1062   1.407       .  A
C1061      H1066   1.083       .  S
C1062      C1063   1.424   1_565  A
C1063      C1067   1.520       .  S
C1063      C1064   1.406       .  A
C1064      H1068   1.083       .  S
C1065      F1078   1.385       .  S
C1065      F1079   1.382       .  S
C1065      F1080   1.382       .  S
C1067      F1075   1.383       .  S
C1067      F1076   1.384       .  S
C1067      F1077   1.385       .  S
C1081      C1082   1.403       .  A
C1081      C1086   1.410       .  A
C1081      H1091   1.083       .  S
C1082      C1087   1.482       .  S
C1082      C1083   1.415       .  A
C1083      C1088   1.521       .  S
C1083      C1084   1.402       .  A
C1084      C1085   1.403       .  A
C1084      H1089   1.083       .  S
C1085      C1086   1.419       .  A
C1086      C1090   1.518       .  S
C1087      C1092   1.414       .  A
C1087      C1096   1.400       .  A
C1088      F1104   1.382       .  S
C1088      F1105   1.383       .  S
C1088      F1106   1.384       .  S
C1090      F1101   1.384       .  S
C1090      F1102   1.384       .  S
C1090      F1103   1.383       .  S
C1092      C1097   1.521       .  S
C1092      C1093   1.405       .  A
C1093      C1094   1.408       .  A
C1093      H1098   1.083       .  S
C1094      C1095   1.423       .  A
C1095      C1099   1.519       .  S
C1095      C1096   1.408       .  A
C1096      H1100   1.083       .  S
C1097      F1110   1.384       .  S
C1097      F1111   1.382       .  S
C1097      F1112   1.383       .  S
C1099      F1107   1.385       .  S
C1099      F1108   1.383       .  S
C1099      F1109   1.384       .  S
C1113      C1114   1.400       .  A
C1113      C1118   1.406       .  A
C1113      H1123   1.083       .  S
C1114      C1119   1.486       .  S
C1114      C1115   1.414       .  A
C1115      C1120   1.519       .  S
C1115      C1116   1.411       .  A
C1116      C1117   1.408       .  A
C1116      H1121   1.083       .  S
C1117      C1118   1.423       .  A
C1118      C1122   1.520       .  S
C1119      C1124   1.406       .  A
C1119      C1128   1.393       .  A
C1120      F1136   1.382       .  S
C1120      F1137   1.382       .  S
C1120      F1138   1.384       .  S
C1122      F1133   1.382       .  S
C1122      F1134   1.385       .  S
C1122      F1135   1.384       .  S
C1124      C1129   1.523       .  S
C1124      C1125   1.409       .  A
C1125      C1126   1.426       .  A
C1125      H1130   1.051       .  S
C1126      C1127   1.452       .  A
C1127      C1131   1.527       .  S
C1127      C1128   1.410       .  A
C1128      H1132   1.081       .  S
C1129      F1142   1.385       .  S
C1129      F1143   1.382       .  S
C1129      F1144   1.382       .  S
C1131      F1139   1.382       .  S
C1131      F1140   1.374       .  S
C1131      F1141   1.386       .  S
C1145      C1146   1.391       .  A
C1145      C1150   1.412       .  A
C1145      H1155   1.082       .  S
C1146      C1151   1.490       .  S
C1146      C1147   1.408       .  A
C1147      C1152   1.520       .  S
C1147      C1148   1.409       .  A
C1148      C1149   1.421       .  A
C1148      H1153   1.071       .  S
C1149      C1150   1.451       .  A
C1150      C1154   1.530       .  S
C1151      C1156   1.417       .  A
C1151      C1160   1.402       .  A
C1152      F1168   1.382       .  S
C1152      F1169   1.382       .  S
C1152      F1170   1.385       .  S
C1154      F1165   1.376       .  S
C1154      F1166   1.385       .  S
C1154      F1167   1.377       .  S
C1156      C1161   1.519       .  S
C1156      C1157   1.412       .  A
C1157      C1158   1.405       .  A
C1157      H1162   1.083       .  S
C1158      C1159   1.419       .  A
C1159      C1163   1.520       .  S
C1159      C1160   1.407       .  A
C1160      H1164   1.084       .  S
C1161      F1174   1.384       .  S
C1161      F1175   1.382       .  S
C1161      F1176   1.382       .  S
C1163      F1171   1.384       .  S
C1163      F1172   1.382       .  S
C1163      F1173   1.385       .  S
C1177      C1178   1.387       .  A
C1177      C1182   1.416       .  A
C1177      H1187   1.083       .  S
C1178      C1183   1.495       .  S
C1178      C1179   1.404       .  A
C1179      C1184   1.520       .  S
C1179      C1180   1.410       .  A
C1180      C1181   1.430       .  A
C1180      H1185   1.079       .  S
C1181      C1182   1.472       .  A
C1182      C1186   1.540       .  S
C1183      C1188   1.412       .  A
C1183      C1192   1.387   1_556  A
C1184      F1200   1.382   1_556  S
C1184      F1201   1.383       .  S
C1184      F1202   1.384       .  S
C1186      F1197   1.366       .  S
C1186      F1198   1.387       .  S
C1186      F1199   1.377       .  S
C1188      C1193   1.520       .  S
C1188      C1189   1.412   1_556  A
C1189      C1190   1.422       .  A
C1189      H1194   1.073   1_554  S
C1190      C1191   1.461       .  A
C1191      C1195   1.534       .  S
C1191      C1192   1.408       .  A
C1192      H1196   1.085       .  S
C1193      F1206   1.385       .  S
C1193      F1207   1.381       .  S
C1193      F1208   1.383       .  S
C1195      F1203   1.381       .  S
C1195      F1204   1.371       .  S
C1195      F1205   1.386       .  S
C1209      C1210   1.392       .  A
C1209      C1214   1.416       .  A
C1209      H1219   1.083       .  S
C1210      C1215   1.501       .  S
C1210      C1211   1.410       .  A
C1211      C1216   1.519       .  S
C1211      C1212   1.414       .  A
C1212      C1213   1.425       .  A
C1212      H1217   1.070       .  S
C1213      C1214   1.458       .  A
C1214      C1218   1.534       .  S
C1215      C1220   1.418       .  A
C1215      C1224   1.405       .  A
C1216      F1232   1.382       .  S
C1216      F1233   1.383       .  S
C1216      F1234   1.385       .  S
C1218      F1229   1.386       .  S
C1218      F1230   1.378       .  S
C1218      F1231   1.377       .  S
C1220      C1225   1.518       .  S
C1220      C1221   1.405       .  A
C1221      C1222   1.406       .  A
C1221      H1226   1.082       .  S
C1222      C1223   1.426       .  A
C1223      C1227   1.518       .  S
C1223      C1224   1.417       .  A
C1224      H1228   1.083       .  S
C1225      F1238   1.385   1_565  S
C1225      F1239   1.381       .  S
C1225      F1240   1.380       .  S
C1227      F1235   1.385       .  S
C1227      F1236   1.383       .  S
C1227      F1237   1.383       .  S
C1241      C1242   1.394       .  A
C1241      C1246   1.413       .  A
C1241      H1251   1.084       .  S
C1242      C1247   1.502       .  S
C1242      C1243   1.411       .  A
C1243      C1248   1.520   1_554  S
C1243      C1244   1.418       .  A
C1244      C1245   1.427       .  A
C1244      H1249   1.074   1_554  S
C1245      C1246   1.458       .  A
C1246      C1250   1.537       .  S
C1247      C1252   1.407       .  A
C1247      C1256   1.392       .  A
C1248      F1264   1.382       .  S
C1248      F1265   1.380       .  S
C1248      F1266   1.385       .  S
C1250      F1261   1.386       .  S
C1250      F1262   1.381       .  S
C1250      F1263   1.372       .  S
C1252      C1257   1.520       .  S
C1252      C1253   1.412       .  A
C1253      C1254   1.431       .  A
C1253      H1258   1.080       .  S
C1254      C1255   1.470       .  A
C1255      C1259   1.547       .  S
C1255      C1256   1.417       .  A
C1256      H1260   1.085       .  S
C1257      F1270   1.385       .  S
C1257      F1271   1.382       .  S
C1257      F1272   1.380   1_554  S
C1259      F1267   1.367       .  S
C1259      F1268   1.380       .  S
C1259      F1269   1.388       .  S
C1273      C1274   1.393       .  A
C1273      C1278   1.411       .  A
C1273      H1283   1.084       .  S
C1274      C1279   1.492       .  S
C1274      C1275   1.407       .  A
C1275      C1280   1.519       .  S
C1275      C1276   1.408       .  A
C1276      C1277   1.427       .  A
C1276      H1281   1.082       .  S
C1277      C1278   1.452       .  A
C1278      C1282   1.528       .  S
C1279      C1284   1.417       .  A
C1279      C1288   1.402       .  A
C1280      F1296   1.383       .  S
C1280      F1297   1.381   1_545  S
C1280      F1298   1.385       .  S
C1282      F1293   1.386       .  S
C1282      F1294   1.378       .  S
C1282      F1295   1.373       .  S
C1284      C1289   1.522       .  S
C1284      C1285   1.408       .  A
C1285      C1286   1.407       .  A
C1285      H1290   1.082       .  S
C1286      C1287   1.426       .  A
C1287      C1291   1.519       .  S
C1287      C1288   1.413       .  A
C1288      H1292   1.083       .  S
C1289      F1302   1.384       .  S
C1289      F1303   1.382       .  S
C1289      F1304   1.381       .  S
C1291      F1299   1.385       .  S
C1291      F1300   1.384       .  S
C1291      F1301   1.382       .  S
C1305      C1306   1.411       .  A
C1305      C1310   1.428       .  A
C1305      H1315   1.075       .  S
C1306      C1311   1.534       .  S
C1306      C1307   1.423       .  A
C1307      C1312   1.522       .  S
C1307      C1308   1.402       .  A
C1308      C1309   1.423       .  A
C1308      H1313   1.083       .  S
C1309      C1310   1.452       .  A
C1310      C1314   1.527       .  S
C1311      C1316   1.428       .  A
C1311      C1320   1.400       .  A
C1312      F1328   1.383       .  S
C1312      F1329   1.379       .  S
C1312      F1330   1.385       .  S
C1314      F1325   1.385       .  S
C1314      F1326   1.383       .  S
C1314      F1327   1.368       .  S
C1316      C1321   1.520       .  S
C1316      C1317   1.425       .  A
C1317      C1318   1.424       .  A
C1317      H1322   1.076       .  S
C1318      C1319   1.454       .  A
C1319      C1323   1.537       .  S
C1319      C1320   1.415       .  A
C1320      H1324   1.080       .  S
C1321      F1334   1.385       .  S
C1321      F1335   1.382       .  S
C1321      F1336   1.383       .  S
C1323      F1331   1.385       .  S
C1323      F1332   1.372       .  S
C1323      F1333   1.380       .  S
C1337      C1338   1.399       .  A
C1337      C1342   1.428       .  A
C1337      H1347   1.084       .  S
C1338      C1343   1.509   1_545  S
C1338      C1339   1.404       .  A
C1339      C1344   1.523   1_545  S
C1339      C1340   1.402       .  A
C1340      C1341   1.435       .  A
C1340      H1345   1.075       .  S
C1341      C1342   1.459       .  A
C1342      C1346   1.518       .  S
C1343      C1348   1.408       .  A
C1343      C1352   1.394       .  A
C1344      F1360   1.383       .  S
C1344      F1361   1.383       .  S
C1344      F1362   1.384       .  S
C1346      F1357   1.383       .  S
C1346      F1358   1.386       .  S
C1346      F1359   1.359       .  S
C1348      C1353   1.517       .  S
C1348      C1349   1.415       .  A
C1349      C1350   1.431   1_556  A
C1349      H1354   1.081   1_556  S
C1350      C1351   1.468       .  A
C1351      C1355   1.543       .  S
C1351      C1352   1.417   1_554  A
C1352      H1356   1.081   1_565  S
C1353      F1366   1.385       .  S
C1353      F1367   1.381       .  S
C1353      F1368   1.383       .  S
C1355      F1363   1.386       .  S
C1355      F1364   1.364       .  S
C1355      F1365   1.373       .  S
C1369      C1370   1.401       .  A
C1369      C1374   1.409       .  A
C1369      H1379   1.083       .  S
C1370      C1375   1.488       .  S
C1370      C1371   1.416       .  A
C1371      C1376   1.520       .  S
C1371      C1372   1.408       .  A
C1372      C1373   1.407       .  A
C1372      H1377   1.083       .  S
C1373      C1374   1.421       .  A
C1374      C1378   1.519       .  S
C1375      C1380   1.415       .  A
C1375      C1384   1.399       .  A
C1376      F1392   1.382       .  S
C1376      F1393   1.382       .  S
C1376      F1394   1.385       .  S
C1378      F1389   1.384       .  S
C1378      F1390   1.384       .  S
C1378      F1391   1.383       .  S
C1380      C1385   1.520       .  S
C1380      C1381   1.409       .  A
C1381      C1382   1.408       .  A
C1381      H1386   1.082       .  S
C1382      C1383   1.427       .  A
C1383      C1387   1.520       .  S
C1383      C1384   1.410       .  A
C1384      H1388   1.083       .  S
C1385      F1398   1.384       .  S
C1385      F1399   1.382       .  S
C1385      F1400   1.383       .  S
C1387      F1395   1.385       .  S
C1387      F1396   1.383       .  S
C1387      F1397   1.383       .  S
C1401      C1402   1.398       .  A
C1401      C1406   1.407       .  A
C1401      H1411   1.083       .  S
C1402      C1407   1.486       .  S
C1402      C1403   1.413       .  A
C1403      C1408   1.520       .  S
C1403      C1404   1.410       .  A
C1404      C1405   1.409       .  A
C1404      H1409   1.082       .  S
C1405      C1406   1.428       .  A
C1406      C1410   1.521       .  S
C1407      C1412   1.401       .  A
C1407      C1416   1.394       .  A
C1408      F1424   1.382       .  S
C1408      F1425   1.382       .  S
C1408      F1426   1.384       .  S
C1410      F1421   1.385       .  S
C1410      F1422   1.383       .  S
C1410      F1423   1.383       .  S
C1412      C1417   1.526       .  S
C1412      C1413   1.400       .  A
C1413      C1414   1.435       .  A
C1413      H1418   1.072       .  S
C1414      C1415   1.452       .  A
C1415      C1419   1.521       .  S
C1415      C1416   1.415       .  A
C1416      H1420   1.085       .  S
C1417      F1430   1.385       .  S
C1417      F1431   1.382       .  S
C1417      F1432   1.381       .  S
C1419      F1427   1.385       .  S
C1419      F1428   1.362       .  S
C1419      F1429   1.383       .  S
C1433      C1434   1.402       .  A
C1433      C1438   1.411       .  A
C1433      H1443   1.083       .  S
C1434      C1439   1.489       .  S
C1434      C1435   1.416   1_545  A
C1435      C1440   1.521       .  S
C1435      C1436   1.408       .  A
C1436      C1437   1.406   1_565  A
C1436      H1441   1.083       .  S
C1437      C1438   1.422       .  A
C1438      C1442   1.519       .  S
C1439      C1444   1.412   1_545  A
C1439      C1448   1.402       .  A
C1440      F1456   1.382   1_565  S
C1440      F1457   1.382       .  S
C1440      F1458   1.384       .  S
C1442      F1453   1.384       .  S
C1442      F1454   1.383       .  S
C1442      F1455   1.383       .  S
C1444      C1449   1.520       .  S
C1444      C1445   1.407       .  A
C1445      C1446   1.411       .  A
C1445      H1450   1.082       .  S
C1446      C1447   1.427   1_565  A
C1447      C1451   1.519       .  S
C1447      C1448   1.412       .  A
C1448      H1452   1.083       .  S
C1449      F1462   1.384       .  S
C1449      F1463   1.382       .  S
C1449      F1464   1.382       .  S
C1451      F1459   1.385       .  S
C1451      F1460   1.383       .  S
C1451      F1461   1.383       .  S
C1465      C1466   1.401       .  A
C1465      C1470   1.407       .  A
C1465      H1475   1.083       .  S
C1466      C1471   1.481       .  S
C1466      C1467   1.415       .  A
C1467      C1472   1.521       .  S
C1467      C1468   1.404       .  A
C1468      C1469   1.403       .  A
C1468      H1473   1.083       .  S
C1469      C1470   1.419       .  A
C1470      C1474   1.519       .  S
C1471      C1476   1.413       .  A
C1471      C1480   1.399       .  A
C1472      F1488   1.382       .  S
C1472      F1489   1.383       .  S
C1472      F1490   1.384       .  S
C1474      F1485   1.384       .  S
C1474      F1486   1.384       .  S
C1474      F1487   1.382       .  S
C1476      C1481   1.520       .  S
C1476      C1477   1.404       .  A
C1477      C1478   1.408       .  A
C1477      H1482   1.082       .  S
C1478      C1479   1.425       .  A
C1479      C1483   1.519       .  S
C1479      C1480   1.407       .  A
C1480      H1484   1.083       .  S
C1481      F1494   1.385       .  S
C1481      F1495   1.382       .  S
C1481      F1496   1.383       .  S
C1483      F1491   1.385       .  S
C1483      F1492   1.383       .  S
C1483      F1493   1.383       .  S
C1497      C1498   1.403       .  A
C1497      C1502   1.413       .  A
C1497      H1507   1.083       .  S
C1498      C1503   1.490       .  S
C1498      C1499   1.416       .  A
C1499      C1504   1.523       .  S
C1499      C1500   1.406       .  A
C1500      C1501   1.408       .  A
C1500      H1505   1.082   1_565  S
C1501      C1502   1.424       .  A
C1502      C1506   1.519       .  S
C1503      C1508   1.406       .  A
C1503      C1512   1.392       .  A
C1504      F1520   1.381   1_565  S
C1504      F1521   1.381       .  S
C1504      F1522   1.385   1_565  S
C1506      F1517   1.385       .  S
C1506      F1518   1.383       .  S
C1506      F1519   1.383       .  S
C1508      C1513   1.521       .  S
C1508      C1509   1.410       .  A
C1509      C1510   1.434       .  A
C1509      H1514   1.076       .  S
C1510      C1511   1.450       .  A
C1511      C1515   1.524       .  S
C1511      C1512   1.411       .  A
C1512      H1516   1.083       .  S
C1513      F1526   1.385       .  S
C1513      F1527   1.382       .  S
C1513      F1528   1.381       .  S
C1515      F1523   1.365       .  S
C1515      F1524   1.386   1_565  S
C1515      F1525   1.376       .  S
C1529      C1530   1.404       .  A
C1529      C1534   1.412       .  A
C1529      H1539   1.083       .  S
C1530      C1535   1.488       .  S
C1530      C1531   1.414       .  A
C1531      C1536   1.520       .  S
C1531      C1532   1.404       .  A
C1532      C1533   1.408       .  A
C1532      H1537   1.083       .  S
C1533      C1534   1.422       .  A
C1534      C1538   1.518       .  S
C1535      C1540   1.413       .  A
C1535      C1544   1.400       .  A
C1536      F1552   1.382       .  S
C1536      F1553   1.382       .  S
C1536      F1554   1.385       .  S
C1538      F1549   1.385       .  S
C1538      F1550   1.381       .  S
C1538      F1551   1.383       .  S
C1540      C1545   1.520       .  S
C1540      C1541   1.410       .  A
C1541      C1542   1.411       .  A
C1541      H1546   1.083       .  S
C1542      C1543   1.425       .  A
C1543      C1547   1.520       .  S
C1543      C1544   1.409       .  A
C1544      H1548   1.083       .  S
C1545      F1558   1.384       .  S
C1545      F1559   1.382       .  S
C1545      F1560   1.382       .  S
C1547      F1555   1.385       .  S
C1547      F1556   1.384       .  S
C1547      F1557   1.383       .  S
C1561      C1562   1.399       .  A
C1561      C1566   1.404       .  A
C1561      H1571   1.083       .  S
C1562      C1567   1.478       .  S
C1562      C1563   1.415       .  A
C1563      C1568   1.521       .  S
C1563      C1564   1.405       .  A
C1564      C1565   1.404       .  A
C1564      H1569   1.083       .  S
C1565      C1566   1.419       .  A
C1566      C1570   1.518       .  S
C1567      C1572   1.410       .  A
C1567      C1576   1.399       .  A
C1568      F1584   1.382       .  S
C1568      F1585   1.382       .  S
C1568      F1586   1.385       .  S
C1570      F1581   1.385       .  S
C1570      F1582   1.382       .  S
C1570      F1583   1.384       .  S
C1572      C1577   1.520       .  S
C1572      C1573   1.405       .  A
C1573      C1574   1.411       .  A
C1573      H1578   1.082       .  S
C1574      C1575   1.425       .  A
C1575      C1579   1.518       .  S
C1575      C1576   1.406       .  A
C1576      H1580   1.083       .  S
C1577      F1590   1.384       .  S
C1577      F1591   1.382       .  S
C1577      F1592   1.382       .  S
C1579      F1587   1.385       .  S
C1579      F1588   1.383       .  S
C1579      F1589   1.382       .  S
C1593      C1594   1.390       .  A
C1593      C1598   1.410       .  A
C1593      H1603   1.084       .  S
C1594      C1599   1.485       .  S
C1594      C1595   1.403       .  A
C1595      C1600   1.520       .  S
C1595      C1596   1.408       .  A
C1596      C1597   1.433       .  A
C1596      H1601   1.077       .  S
C1597      C1598   1.456       .  A
C1598      C1602   1.530       .  S
C1599      C1604   1.414       .  A
C1599      C1608   1.401       .  A
C1600      F1616   1.383       .  S
C1600      F1617   1.382       .  S
C1600      F1618   1.384       .  S
C1602      F1613   1.387       .  S
C1602      F1614   1.369       .  S
C1602      F1615   1.374       .  S
C1604      C1609   1.520       .  S
C1604      C1605   1.407       .  A
C1605      C1606   1.407       .  A
C1605      H1610   1.083       .  S
C1606      C1607   1.423       .  A
C1607      C1611   1.519       .  S
C1607      C1608   1.408       .  A
C1608      H1612   1.083       .  S
C1609      F1622   1.385       .  S
C1609      F1623   1.383       .  S
C1609      F1624   1.381       .  S
C1611      F1619   1.385       .  S
C1611      F1620   1.383       .  S
C1611      F1621   1.382       .  S
C1625      C1626   1.403       .  A
C1625      C1630   1.415       .  A
C1625      H1635   1.083       .  S
C1626      C1631   1.500       .  S
C1626      C1627   1.416   1_565  A
C1627      C1632   1.519       .  S
C1627      C1628   1.412       .  A
C1628      C1629   1.411   1_545  A
C1628      H1633   1.082       .  S
C1629      C1630   1.426       .  A
C1630      C1634   1.519       .  S
C1631      C1636   1.417   1_565  A
C1631      C1640   1.403       .  A
C1632      F1648   1.382       .  S
C1632      F1649   1.382       .  S
C1632      F1650   1.385       .  S
C1634      F1645   1.385       .  S
C1634      F1646   1.383       .  S
C1634      F1647   1.383       .  S
C1636      C1641   1.520       .  S
C1636      C1637   1.411       .  A
C1637      C1638   1.410   1_545  A
C1637      H1642   1.082       .  S
C1638      C1639   1.426       .  A
C1639      C1643   1.518       .  S
C1639      C1640   1.415       .  A
C1640      H1644   1.083       .  S
C1641      F1654   1.385       .  S
C1641      F1655   1.382   1_545  S
C1641      F1656   1.383       .  S
C1643      F1651   1.382       .  S
C1643      F1652   1.383   1_565  S
C1643      F1653   1.385       .  S
C1657      C1658   1.400       .  A
C1657      C1662   1.410       .  A
C1657      H1667   1.083       .  S
C1658      C1663   1.485       .  S
C1658      C1659   1.413   1_545  A
C1659      C1664   1.522       .  S
C1659      C1660   1.406       .  A
C1660      C1661   1.411       .  A
C1660      H1665   1.082       .  S
C1661      C1662   1.426   1_565  A
C1662      C1666   1.520       .  S
C1663      C1668   1.415       .  A
C1663      C1672   1.401       .  A
C1664      F1680   1.382       .  S
C1664      F1681   1.381       .  S
C1664      F1682   1.384       .  S
C1666      F1677   1.385       .  S
C1666      F1678   1.383       .  S
C1666      F1679   1.383       .  S
C1668      C1673   1.519       .  S
C1668      C1669   1.409       .  A
C1669      C1670   1.406       .  A
C1669      H1674   1.083       .  S
C1670      C1671   1.420       .  A
C1671      C1675   1.520   1_545  S
C1671      C1672   1.405       .  A
C1672      H1676   1.083   1_545  S
C1673      F1686   1.385       .  S
C1673      F1687   1.382       .  S
C1673      F1688   1.381       .  S
C1675      F1683   1.384   1_565  S
C1675      F1684   1.382       .  S
C1675      F1685   1.385       .  S
C1689      C1690   1.398       .  A
C1689      C1694   1.406       .  A
C1689      H1699   1.083       .  S
C1690      C1695   1.478       .  S
C1690      C1691   1.413       .  A
C1691      C1696   1.521       .  S
C1691      C1692   1.405       .  A
C1692      C1693   1.407       .  A
C1692      H1697   1.083       .  S
C1693      C1694   1.423       .  A
C1694      C1698   1.518       .  S
C1695      C1700   1.412       .  A
C1695      C1704   1.400       .  A
C1696      F1712   1.382       .  S
C1696      F1713   1.382       .  S
C1696      F1714   1.384       .  S
C1698      F1709   1.385       .  S
C1698      F1710   1.383       .  S
C1698      F1711   1.384       .  S
C1700      C1705   1.521       .  S
C1700      C1701   1.402       .  A
C1701      C1702   1.407       .  A
C1701      H1706   1.083       .  S
C1702      C1703   1.422       .  A
C1703      C1707   1.518       .  S
C1703      C1704   1.408       .  A
C1704      H1708   1.083       .  S
C1705      F1718   1.384       .  S
C1705      F1719   1.383       .  S
C1705      F1720   1.382       .  S
C1707      F1715   1.384       .  S
C1707      F1716   1.383       .  S
C1707      F1717   1.384       .  S
C1721      C1722   1.400       .  A
C1721      C1726   1.413       .  A
C1721      H1731   1.083       .  S
C1722      C1727   1.497       .  S
C1722      C1723   1.419       .  A
C1723      C1728   1.520       .  S
C1723      C1724   1.412       .  A
C1724      C1725   1.408       .  A
C1724      H1729   1.082       .  S
C1725      C1726   1.429       .  A
C1726      C1730   1.520   1_545  S
C1727      C1732   1.417       .  A
C1727      C1736   1.400       .  A
C1728      F1744   1.381       .  S
C1728      F1745   1.382       .  S
C1728      F1746   1.385       .  S
C1730      F1741   1.383       .  S
C1730      F1742   1.385       .  S
C1730      F1743   1.383       .  S
C1732      C1737   1.518       .  S
C1732      C1733   1.416       .  A
C1733      C1734   1.423       .  A
C1733      H1738   1.078       .  S
C1734      C1735   1.427       .  A
C1735      C1739   1.533       .  S
C1735      C1736   1.410       .  A
C1736      H1740   1.084       .  S
C1737      F1750   1.385       .  S
C1737      F1751   1.382       .  S
C1737      F1752   1.381       .  S
C1739      F1747   1.385       .  S
C1739      F1748   1.371       .  S
C1739      F1749   1.384       .  S
