geometry optimzed in LAMMPS
_audit_creation_date              2020-11-30 
_audit_creation_method            'lammps2cif' 
_symmetry_space_group_name_H-M    'P1' 
_symmetry_Int_Tables_number       1 
_symmetry_cell_setting            triclinic 
loop_ 
_symmetry_equiv_pos_as_xyz 
  x,y,z 
_cell_length_a                    28.13484340956935 
_cell_length_b                    28.159678063006208 
_cell_length_c                    44.90128438493522 
_cell_angle_alpha                 89.99660065239193 
_cell_angle_beta                  90.02222299688012 
_cell_angle_gamma                 120.84790964515922 
loop_ 
_atom_site_label 
_atom_site_type_symbol 
_atom_site_fract_x 
_atom_site_fract_y 
_atom_site_fract_z 
_atom_site_charge 
C1          C  0.01783720  0.87154618  0.92720976     0.03950
C2          C  0.16532611  0.01935383  0.92692170     0.03950
O3          O  0.31899777  0.92102876  0.83638900    -0.51380
C4          C  0.46732335  0.05042337  0.84225894     0.81250
O5          O  0.37334785  0.09218615  0.78928188    -0.52530
C6          C  0.27585961  0.90572135  0.82097480     0.81230
C7          C  0.29013693  0.03500436  0.87243520     0.83620
Cd8        Cd  0.35541729  0.02032262  0.82781165     1.37460
O9          O  0.43031235  0.00195952  0.83515909    -0.51370
O10         O  0.31523927  0.00956925  0.87798049    -0.50180
C11         C  0.36750500  0.06048442  0.76777123     0.83580
O12         O  0.29990757  0.05929218  0.84754319    -0.52550
O13         O  0.45293225  0.08617835  0.84413080    -0.51010
O14         O  0.27097668  0.94277309  0.80796597    -0.51000
O15         O  0.35689130  0.01238798  0.77416955    -0.50170
O16         O  0.03667691  0.60759444  0.83593932    -0.51380
C17         C  0.13257762  0.76216202  0.82112392     0.81250
O18         O  0.94659480  0.66489029  0.78935244    -0.52530
C19         C  0.98798236  0.57038009  0.84254384     0.81230
C20         C  0.00282924  0.74704339  0.87275106     0.83620
Cd21       Cd  0.01803911  0.68218713  0.82807569     1.37470
O22         O  0.11758368  0.71905257  0.83646097    -0.51370
O23         O  0.02875602  0.72241522  0.87824113    -0.50180
C24         C  0.97826465  0.67014323  0.76793358     0.83580
O25         O  0.97834764  0.73699878  0.84789263    -0.52550
O26         O  0.09525095  0.76685509  0.80826842    -0.51010
O27         O  0.95197983  0.58453204  0.84394578    -0.51000
O28         O  0.02612983  0.68006646  0.77446307    -0.50170
C29         C  0.01839889  0.87219873  0.52080443     0.03950
C30         C  0.16606793  0.01977581  0.52047562     0.03950
O31         O  0.03722799  0.60768163  0.61233847    -0.51380
C32         C  0.13337908  0.76224001  0.62628047     0.81250
O33         O  0.97926163  0.73765004  0.60005516    -0.52530
C34         C  0.98876315  0.57067601  0.60518395     0.81230
C35         C  0.97860536  0.67034884  0.67964918     0.83620
Cd36       Cd  0.01870413  0.68245498  0.61959580     1.37470
O37         O  0.11809861  0.71937199  0.61067363    -0.51370
O38         O  0.02672702  0.68091425  0.67324404    -0.50180
C39         C  0.00344853  0.74757137  0.57512538     0.83580
O40         O  0.94685929  0.66452770  0.65814508    -0.52550
O41         O  0.09629017  0.76673526  0.63954176    -0.51010
O42         O  0.95295706  0.58501876  0.60323496    -0.51000
O43         O  0.02905882  0.72268912  0.56947108    -0.50170
O44         O  0.31976784  0.92118920  0.61080354    -0.51380
C45         C  0.46815993  0.05077375  0.60517914     0.81250
O46         O  0.30080205  0.05957726  0.59972354    -0.52530
C47         C  0.27663663  0.90582372  0.62621477     0.81230
C48         C  0.36789079  0.06055556  0.67953237     0.83620
Cd49       Cd  0.35615989  0.02047701  0.61948900     1.37460
O50         O  0.43122890  0.00230922  0.61231742    -0.51370
O51         O  0.35744411  0.01250914  0.67314426    -0.50180
C52         C  0.29101280  0.03530049  0.57482590     0.83580
O53         O  0.37377973  0.09225242  0.65801226    -0.52550
O54         O  0.45364875  0.08642711  0.60321908    -0.51010
O55         O  0.27173198  0.94283605  0.63924851    -0.51000
O56         O  0.31602548  0.00977546  0.56929622    -0.50170
C57         C  0.87468852  0.87428604  0.51948980     0.03950
C58         C  0.16401540  0.16339193  0.51888758     0.03950
O59         O  0.42037363  0.44625194  0.61241498    -0.51380
C60         C  0.26735506  0.38245699  0.63284978     0.81250
O61         O  0.29837583  0.25962135  0.59706024    -0.52530
C62         C  0.45894572  0.43652001  0.60846956     0.81230
C63         C  0.35479928  0.31531036  0.67995805     0.83620
Cd64       Cd  0.34691744  0.35118180  0.62154300     1.37470
O65         O  0.31311702  0.41625108  0.62081445    -0.51370
O66         O  0.34970025  0.35659630  0.67509994    -0.50180
C67         C  0.28582179  0.27625120  0.57387812     0.83580
O68         O  0.35738529  0.28944122  0.65754679    -0.52550
O69         O  0.25944743  0.33570405  0.64032555    -0.51010
O70         O  0.44614058  0.38639773  0.60914082    -0.51000
O71         O  0.30599590  0.32770825  0.57128911    -0.50170
O72         O  0.03375317  0.43885788  0.61338374    -0.51380
C73         C  0.12531963  0.38008441  0.63323691     0.81250
O74         O  0.93968281  0.28133887  0.65768260    -0.52530
C75         C  0.98574643  0.42744690  0.60612272     0.81230
C76         C  0.00474082  0.27216457  0.57357382     0.83620
Cd77       Cd  0.01289828  0.34471476  0.62130975     1.37460
O78         O  0.11279031  0.41184207  0.62003035    -0.51370
O79         O  0.03594880  0.32395461  0.57189074    -0.50180
C80         C  0.96726452  0.30954143  0.68002057     0.83580
O81         O  0.97282913  0.25355099  0.59587639    -0.52550
O82         O  0.08621728  0.33363836  0.64188123    -0.51010
O83         O  0.94878849  0.37670371  0.60459293    -0.51000
O84         O  0.01334113  0.35257084  0.67493201    -0.50170
O85         O  0.60007010  0.00581641  0.61302927    -0.51380
C86         C  0.65925359  0.91464457  0.63401069     0.81250
O87         O  0.78503861  0.06695549  0.59585656    -0.52530
C88         C  0.61155986  0.05398302  0.60620146     0.81230
C89         C  0.72899736  0.07198145  0.68045550     0.83620
Cd90       Cd  0.69412362  0.02669914  0.62166613     1.37470
O91         O  0.62706234  0.92683453  0.62097785    -0.51370
O92         O  0.68524583  0.02661819  0.67518637    -0.50180
C93         C  0.76626890  0.03428989  0.57385700     0.83580
O94         O  0.75803730  0.09913558  0.65824429    -0.52550
O95         O  0.70591687  0.95393226  0.64229815    -0.51010
O96         O  0.66234765  0.09105731  0.60518784    -0.51000
O97         O  0.71447063  0.00261233  0.57247689    -0.50170
O98         O  0.59275562  0.61918423  0.61271464    -0.51380
C99         C  0.65684872  0.77264966  0.63397659     0.81250
O100        O  0.74968828  0.68333958  0.65888140    -0.52530
C101        C  0.60281484  0.58080466  0.60898254     0.81230
C102        C  0.76234035  0.75333522  0.57493632     0.83620
Cd103      Cd  0.68756931  0.69270102  0.62264362     1.37460
O104        O  0.62252601  0.72660174  0.62240437    -0.51370
O105        O  0.71087584  0.73355675  0.57247584    -0.50180
C106        C  0.72271688  0.68446331  0.68116309     0.83580
O107        O  0.77904805  0.74065033  0.59804954    -0.52550
O108        O  0.70388194  0.78067227  0.64101281    -0.51010
O109        O  0.65300192  0.59377257  0.61017850    -0.51000
O110        O  0.68070187  0.68829677  0.67612287    -0.50170
C111        C  0.87274310  0.01852858  0.51780691     0.03950
C112        C  0.01950505  0.16509686  0.51755658     0.03950
C113        C  0.16339243  0.16300721  0.92844833     0.03950
C114        C  0.87416364  0.87376647  0.92899141     0.03950
O115        O  0.62541769  0.92572679  0.82829732    -0.51380
C116        C  0.61046038  0.05311413  0.84143953     0.81250
O117        O  0.78430498  0.06469213  0.85174227    -0.52530
C118        C  0.65672980  0.91281181  0.81490831     0.81230
C119        C  0.72861323  0.07114270  0.76785633     0.83620
Cd120      Cd  0.69296156  0.02544701  0.82651540     1.37470
O121        O  0.59883405  0.00524738  0.83383135    -0.51370
O122        O  0.68581590  0.02484202  0.77285241    -0.50180
C123        C  0.76552200  0.03326832  0.87421818     0.83580
O124        O  0.75639156  0.09888220  0.79026047    -0.52550
O125        O  0.66130246  0.08969744  0.84340435    -0.51010
O126        O  0.70308333  0.95161928  0.80593136    -0.51000
O127        O  0.71362782  0.00277163  0.87608115    -0.50170
O128        O  0.59087852  0.61759252  0.83578094    -0.51380
C129        C  0.65409137  0.77079696  0.81540481     0.81250
O130        O  0.77744550  0.73999881  0.85081532    -0.52530
C131        C  0.60105617  0.57932257  0.83962714     0.81230
C132        C  0.72185407  0.68396207  0.76812459     0.83620
Cd133      Cd  0.68576851  0.69147850  0.82651076     1.37460
O134        O  0.62031546  0.72491939  0.82731688    -0.51370
O135        O  0.68023124  0.68856676  0.77295295    -0.50180
C136        C  0.76087816  0.75233540  0.87408752     0.83580
O137        O  0.74792528  0.68171159  0.79054455    -0.52550
O138        O  0.70097370  0.77891328  0.80796123    -0.51010
O139        O  0.65132518  0.59250950  0.83882105    -0.51000
O140        O  0.70937942  0.73207932  0.87679212    -0.50170
O141        O  0.31196812  0.41518868  0.82553969    -0.51380
C142        C  0.45736030  0.43500941  0.83910156     0.81250
O143        O  0.29710978  0.25848673  0.84989654    -0.52530
C144        C  0.26584503  0.38099522  0.81396845     0.81230
C145        C  0.35417654  0.31475043  0.76691700     0.83620
Cd146      Cd  0.34558152  0.34997612  0.82537228     1.37470
O147        O  0.41885752  0.44483598  0.83510283    -0.51370
O148        O  0.34945597  0.35623882  0.77184628    -0.50180
C149        C  0.28463389  0.27523351  0.87305769     0.83580
O150        O  0.35600276  0.28833789  0.78927862    -0.52550
O151        O  0.44458293  0.38490975  0.83813279    -0.51010
O152        O  0.25764289  0.33392941  0.80695963    -0.51000
O153        O  0.30474256  0.32669064  0.87557566    -0.50170
O154        O  0.03300922  0.43836971  0.83484404    -0.51380
C155        C  0.12398140  0.37900987  0.81395366     0.81250
O156        O  0.97122549  0.25329644  0.85201134    -0.52530
C157        C  0.98481931  0.42703444  0.84159574     0.81230
C158        C  0.96661268  0.30942984  0.76745203     0.83620
Cd159      Cd  0.01186042  0.34426612  0.82626655     1.37460
O160        O  0.11184571  0.41110120  0.82711135    -0.51370
O161        O  0.01212257  0.35302375  0.77271921    -0.50180
C162        C  0.00384986  0.27184165  0.87404842     0.83580
O163        O  0.93930556  0.28054984  0.78967045    -0.52550
O164        O  0.08462019  0.33250376  0.80555517    -0.51010
O165        O  0.94761560  0.37632319  0.84260146    -0.51000
O166        O  0.03572588  0.32356632  0.87547529    -0.50170
C167        C  0.87247850  0.01815110  0.93025511     0.03950
C168        C  0.01901887  0.16494927  0.93005115     0.03950
C169        C  0.87560679  0.87309963  0.01949553     0.03950
C170        C  0.01998350  0.87114905  0.01780977     0.03950
C171        C  0.16649850  0.01795210  0.01750013     0.03950
C172        C  0.16486650  0.16236635  0.01895803     0.03950
O173        O  0.00631858  0.59830845  0.11300327    -0.51380
C174        C  0.91581137  0.65788702  0.13441190     0.81250
O175        O  0.10045494  0.75612246  0.15840526    -0.52530
C176        C  0.05449014  0.60951396  0.10630946     0.81230
C177        C  0.03547751  0.76462512  0.07396675     0.83620
Cd178      Cd  0.02777788  0.69243952  0.12182696     1.37470
O179        O  0.92782664  0.62557828  0.12140305    -0.51370
O180        O  0.00347099  0.71290860  0.07268390    -0.50180
C181        C  0.07324722  0.72713938  0.18061982     0.83580
O182        O  0.06835379  0.78327798  0.09589899    -0.52550
O183        O  0.95524397  0.70455958  0.14255191    -0.51010
O184        O  0.09184450  0.66018476  0.10544654    -0.51000
O185        O  0.02775770  0.68352674  0.17535194    -0.50170
O186        O  0.62073300  0.59093834  0.11270290    -0.51380
C187        C  0.77374598  0.65550521  0.13431713     0.81250
O188        O  0.74135328  0.77725940  0.09784925    -0.52530
C189        C  0.58195176  0.60045939  0.10902583     0.81230
C190        C  0.68512429  0.72130227  0.18101254     0.83620
Cd191      Cd  0.69367184  0.68593544  0.12260712     1.37460
O192        O  0.72777699  0.62114206  0.12265845    -0.51370
O193        O  0.68963795  0.67968340  0.17611284    -0.50180
C194        C  0.75443524  0.76064703  0.07485478     0.83580
O195        O  0.68344894  0.74777107  0.15863668    -0.52550
O196        O  0.78165015  0.70248366  0.14126637    -0.51010
O197        O  0.59441929  0.65045204  0.11020596    -0.51000
O198        O  0.73499012  0.70927142  0.07250870    -0.50170
O199        O  0.41283826  0.10954208  0.12004116    -0.51380
C200        C  0.42794969  0.98220988  0.10590741     0.81250
O201        O  0.28140154  0.93668943  0.15736104    -0.52530
C202        C  0.38108038  0.12206766  0.13326255     0.81230
C203        C  0.27332952  0.00238171  0.07337230     0.83620
Cd204      Cd  0.34548790  0.00974476  0.12113727     1.37470
O205        O  0.43955733  0.03017972  0.11327615    -0.51370
O206        O  0.32517710  0.03357789  0.07183742    -0.50180
C207        C  0.30979858  0.96387125  0.17974155     0.83580
O208        O  0.25449430  0.97008826  0.09550823    -0.52550
O209        O  0.37711587  0.94545385  0.10428936    -0.51010
O210        O  0.33455372  0.08299812  0.14185529    -0.51000
O211        O  0.35328729  0.00960181  0.17473006    -0.50170
O212        O  0.41777785  0.30998513  0.12111372    -0.51380
C213        C  0.43811230  0.45602236  0.10878953     0.81250
O214        O  0.26119133  0.29549109  0.09749189    -0.52530
C215        C  0.38381801  0.26420848  0.13305917     0.81230
C216        C  0.31692962  0.35215911  0.18020640     0.83620
Cd217      Cd  0.35284937  0.34403972  0.12187654     1.37470
O218        O  0.44804936  0.41766438  0.11297367    -0.51370
O219        O  0.35813371  0.34683335  0.17542984    -0.50180
C220        C  0.27787681  0.28342622  0.07416690     0.83580
O221        O  0.29114758  0.35479512  0.15775277    -0.52550
O222        O  0.38787885  0.44300763  0.10926959    -0.51010
O223        O  0.33705628  0.25640878  0.14050912    -0.51000
O224        O  0.32940208  0.30381289  0.07149523    -0.50170
C225        C  0.87492610  0.87259617  0.42898500     0.03950
C226        C  0.87266088  0.01610671  0.42721000     0.03950
C227        C  0.02038567  0.16368079  0.42696473     0.03950
C228        C  0.16418793  0.16175634  0.42837502     0.03950
O229        O  0.61912541  0.58979446  0.33565526    -0.51380
C230        C  0.77214421  0.65340689  0.31501191     0.81250
O231        O  0.68220784  0.74659357  0.29036823    -0.52530
C232        C  0.58063533  0.59965105  0.33959413     0.81230
C233        C  0.75344384  0.75959633  0.37397962     0.83620
Cd234      Cd  0.69260893  0.68474464  0.32629906     1.37470
O235        O  0.72608887  0.61938941  0.32669202    -0.51370
O236        O  0.73330213  0.70814559  0.37658029    -0.50180
C237        C  0.68468579  0.72072675  0.26793015     0.83580
O238        O  0.74103097  0.77623659  0.35075423    -0.52550
O239        O  0.78037359  0.70042955  0.30788107    -0.51010
O240        O  0.59350536  0.64978294  0.33877504    -0.51000
O241        O  0.68969573  0.67937271  0.27273790    -0.50170
O242        O  0.00556002  0.59689983  0.33428645    -0.51380
C243        C  0.91408510  0.65563144  0.31467039     0.81250
O244        O  0.06639167  0.78233598  0.35205241    -0.52530
C245        C  0.05342937  0.60819044  0.34176482     0.81230
C246        C  0.07246218  0.72661991  0.26802379     0.83620
Cd247      Cd  0.02651567  0.69113721  0.32666017     1.37460
O248        O  0.92662232  0.62406596  0.32808626    -0.51370
O249        O  0.02621992  0.68373263  0.27301556    -0.50180
C250        C  0.03440970  0.76373337  0.37432661     0.83580
O251        O  0.10007248  0.75452655  0.29042797    -0.52550
O252        O  0.95318333  0.70192673  0.30584446    -0.51010
O253        O  0.09036753  0.65890864  0.34354928    -0.51000
O254        O  0.00327790  0.71193680  0.37603542    -0.50170
O255        O  0.60752429  0.03348743  0.33563601    -0.51380
C256        C  0.76193954  0.12954087  0.32112746     0.81250
O257        O  0.73760574  0.97582914  0.34797783    -0.52530
C258        C  0.57032738  0.98489975  0.34238191     0.81230
C259        C  0.67047141  0.97510065  0.26799342     0.83620
Cd260      Cd  0.68230683  0.01499472  0.32809068     1.37470
O261        O  0.71887991  0.11434637  0.33657283    -0.51370
O262        O  0.68058334  0.02300536  0.27445720    -0.50180
C263        C  0.74757918  0.00033981  0.37281394     0.83580
O264        O  0.66494487  0.94343517  0.28946342    -0.52550
O265        O  0.76672185  0.09239931  0.30815969    -0.51010
O266        O  0.58456256  0.94899956  0.34401098    -0.51000
O267        O  0.72266140  0.02598366  0.37827617    -0.50170
O268        O  0.41156576  0.10926405  0.32656279    -0.51380
C269        C  0.42706430  0.98206957  0.34114710     0.81250
O270        O  0.25353388  0.96951013  0.35153052    -0.52530
C271        C  0.37943321  0.12153863  0.31353525     0.81230
C272        C  0.30929077  0.96369836  0.26709282     0.83620
Cd273      Cd  0.34446395  0.00940150  0.32578188     1.37470
O274        O  0.43860010  0.03012397  0.33401260    -0.51370
O275        O  0.35278311  0.00936114  0.27223290    -0.50180
C276        C  0.27243006  0.00185080  0.37365653     0.83580
O277        O  0.28060638  0.93649527  0.28938586    -0.52550
O278        O  0.37625136  0.94515652  0.34247702    -0.51010
O279        O  0.33278784  0.08229944  0.30518868    -0.51000
O280        O  0.32427100  0.03318893  0.37511050    -0.50170
O281        O  0.00139147  0.42772872  0.33572049    -0.51380
C282        C  0.90525934  0.27307891  0.32106516     0.81250
O283        O  0.09144187  0.37050667  0.28936125    -0.52530
C284        C  0.05002755  0.46477206  0.34257124     0.81230
C285        C  0.03511159  0.28805237  0.37252634     0.83620
Cd286      Cd  0.01984397  0.35300276  0.32796773     1.37460
O287        O  0.92034469  0.31614394  0.33646224    -0.51370
O288        O  0.00929881  0.31276232  0.37809403    -0.50180
C289        C  0.05985532  0.36530475  0.26789569     0.83580
O290        O  0.05943459  0.29803531  0.34763467    -0.52550
O291        O  0.94251072  0.26842390  0.30810941    -0.51010
O292        O  0.08588994  0.45045430  0.34414150    -0.51000
O293        O  0.01193280  0.35528084  0.27434706    -0.50170
O294        O  0.41654712  0.30959540  0.32564159    -0.51380
C295        C  0.43662452  0.45559139  0.33937964     0.81250
O296        O  0.28938117  0.35294542  0.28944269    -0.52530
C297        C  0.38216616  0.26372639  0.31391939     0.81230
C298        C  0.27687238  0.28303370  0.37320384     0.83620
Cd299      Cd  0.35176520  0.34383404  0.32558592     1.37460
O300        O  0.44654905  0.41708583  0.33581357    -0.51370
O301        O  0.32826712  0.30233128  0.37559484    -0.50180
C302        C  0.31659207  0.35237772  0.26713320     0.83580
O303        O  0.26034884  0.29630922  0.35023556    -0.52550
O304        O  0.38650385  0.44279660  0.33800650    -0.51010
O305        O  0.33523265  0.25596405  0.30688225    -0.51000
O306        O  0.35891318  0.34904641  0.27212189    -0.50170
C307        C  0.01940777  0.87085721  0.43020827     0.03950
C308        C  0.16609640  0.01749366  0.42988243     0.03950
C309        C  0.02112363  0.16447366  0.02065186     0.03950
C310        C  0.87360577  0.01672426  0.02085249     0.03950
O311        O  0.92100344  0.31690795  0.11071846    -0.51380
C312        C  0.05079816  0.46590307  0.10512793     0.81250
O313        O  0.09183722  0.37101992  0.15819322    -0.52530
C314        C  0.90589447  0.27399434  0.12625315     0.81230
C315        C  0.03594277  0.28908836  0.07493231     0.83620
Cd316      Cd  0.02050686  0.35397054  0.11947254     1.37460
O317        O  0.00209619  0.42877370  0.11178280    -0.51370
O318        O  0.01008913  0.31375108  0.06933000    -0.50180
C319        C  0.06017517  0.36579651  0.17960917     0.83580
O320        O  0.06025986  0.29912836  0.09983850    -0.52550
O321        O  0.08667792  0.45160395  0.10360898    -0.51010
O322        O  0.94312411  0.26951403  0.13937578    -0.51000
O323        O  0.01235846  0.35602054  0.17307975    -0.50170
O324        O  0.71956305  0.11494349  0.11091752    -0.51380
C325        C  0.57121686  0.98527486  0.10508680     0.81250
O326        O  0.73889965  0.97689186  0.10011895    -0.52530
C327        C  0.76263055  0.13036276  0.12641303     0.81230
C328        C  0.67090925  0.97546803  0.17972646     0.83620
Cd329      Cd  0.68314503  0.01568230  0.11968143     1.37470
O330        O  0.60806336  0.03374229  0.11229156    -0.51370
O331        O  0.68118738  0.02345627  0.17332898    -0.50180
C332        C  0.74861523  0.00103538  0.07518601     0.83580
O333        O  0.66545270  0.94390922  0.15821603    -0.52550
O334        O  0.58579422  0.94966551  0.10317999    -0.51010
O335        O  0.76745609  0.09339632  0.13956356    -0.51000
O336        O  0.72337593  0.02629892  0.06954429    -0.50170
C337        C  0.80624012  0.18688674  0.12779823    -0.06830
C338        C  0.84943188  0.23019480  0.12773720    -0.08390
C339        C  0.78929970  0.00304863  0.05495679    -0.06830
C340        C  0.82704287  0.00948388  0.03921652    -0.08390
C341        C  0.96856201  0.11309110  0.02734148    -0.06830
C342        C  0.92494891  0.06941256  0.02741151    -0.08390
C343        C  0.03438618  0.24864423  0.05469903    -0.06830
C344        C  0.02825482  0.21101564  0.03897612    -0.08390
C345        C  0.06784203  0.92565566  0.42504872    -0.06830
C346        C  0.11119495  0.96901481  0.42496658    -0.08390
C347        C  0.07604239  0.36995120  0.21033752    -0.06830
C348        C  0.07593933  0.36979413  0.23719620    -0.08390
C349        C  0.23671372  0.00552650  0.39527492    -0.06830
C350        C  0.20642911  0.01199118  0.41168567    -0.08390
C351        C  0.39304335  0.17744356  0.31011023    -0.06830
C352        C  0.39387846  0.22046393  0.31029563    -0.08390
C353        C  0.66640313  0.95928125  0.21041367    -0.06830
C354        C  0.66625945  0.95915033  0.23727853    -0.08390
C355        C  0.84879149  0.22930591  0.31957729    -0.06830
C356        C  0.80557998  0.18602462  0.31959653    -0.08390
C357        C  0.47087121  0.97093783  0.34621998    -0.06830
C358        C  0.51427021  0.97193420  0.34660991    -0.08390
C359        C  0.02467176  0.83026947  0.41212961    -0.06830
C360        C  0.03091116  0.79971381  0.39582851    -0.08390
C361        C  0.06433218  0.56424167  0.34672763    -0.06830
C362        C  0.06312026  0.52077380  0.34697878    -0.08390
C363        C  0.85807427  0.64187111  0.31133622    -0.06830
C364        C  0.81510775  0.64120249  0.31151054    -0.08390
C365        C  0.52475327  0.55485204  0.34349496    -0.06830
C366        C  0.48136631  0.51143195  0.34343507    -0.08390
C367        C  0.16553950  0.06816624  0.42258648    -0.06830
C368        C  0.16444840  0.11058802  0.42210070    -0.08390
C369        C  0.23872352  0.24469882  0.39463093    -0.06830
C370        C  0.20600585  0.20798702  0.41059799    -0.08390
C371        C  0.10966300  0.15462322  0.42235875    -0.06830
C372        C  0.06719016  0.15547757  0.42192488    -0.08390
C373        C  0.03352875  0.24764548  0.39279168    -0.06830
C374        C  0.02741755  0.21009057  0.40856558    -0.08390
C375        C  0.92401269  0.06868020  0.42049668    -0.06830
C376        C  0.96768912  0.11229929  0.42045156    -0.08390
C377        C  0.78821395  0.00233653  0.39311830    -0.06830
C378        C  0.82596847  0.00877744  0.40888325    -0.08390
C379        C  0.96859219  0.87129992  0.42301697    -0.06830
C380        C  0.92612117  0.87236987  0.42261365    -0.08390
C381        C  0.88087320  0.96930833  0.42228446    -0.06830
C382        C  0.88184432  0.92693416  0.42280904    -0.08390
C383        C  0.79175192  0.79765980  0.39546597    -0.06830
C384        C  0.82850495  0.83049505  0.41139576    -0.09000
C385        C  0.30128903  0.35476131  0.23702405    -0.06830
C386        C  0.30140097  0.35469109  0.21023950    -0.08390
C387        C  0.29447405  0.94574731  0.20996168    -0.06830
C388        C  0.29429911  0.94568272  0.23682716    -0.08390
C389        C  0.51514750  0.97209914  0.10063939    -0.06830
C390        C  0.47170532  0.97100566  0.10089764    -0.08390
C391        C  0.39492271  0.17804988  0.13663969    -0.06830
C392        C  0.39575592  0.22106828  0.13650105    -0.08390
C393        C  0.68251485  0.73655906  0.21109623    -0.06830
C394        C  0.68237327  0.73635367  0.23788358    -0.08390
C395        C  0.52619323  0.55543427  0.10502716    -0.06830
C396        C  0.48289085  0.51192128  0.10495873    -0.08390
C397        C  0.06393952  0.52196587  0.10088725    -0.06830
C398        C  0.06524106  0.56548056  0.10125488    -0.08390
C399        C  0.09101232  0.74197639  0.21093735    -0.06830
C400        C  0.09073975  0.74179148  0.23780609    -0.08390
C401        C  0.85995379  0.64442199  0.13803356    -0.06830
C402        C  0.81696582  0.64370641  0.13794304    -0.08390
C403        C  0.06804553  0.15640137  0.02560533    -0.06830
C404        C  0.11047768  0.15546764  0.02510063    -0.08390
C405        C  0.23979865  0.24524471  0.05263402    -0.06830
C406        C  0.20697134  0.20862307  0.03663870    -0.08390
C407        C  0.16601998  0.06867445  0.02477319    -0.06830
C408        C  0.16500058  0.11113557  0.02525231    -0.08390
C409        C  0.20708787  0.01260970  0.03555043    -0.06830
C410        C  0.23753435  0.00615942  0.05184456    -0.08390
C411        C  0.06841466  0.92605539  0.02272890    -0.06830
C412        C  0.11169614  0.96948126  0.02262300    -0.08390
C413        C  0.03197156  0.80049846  0.05238279    -0.06830
C414        C  0.02557459  0.83085432  0.03599268    -0.08390
C415        C  0.96923700  0.87162275  0.02513678    -0.06830
C416        C  0.92680816  0.87276631  0.02570380    -0.08390
C417        C  0.88281067  0.92759933  0.02551756    -0.06830
C418        C  0.88192937  0.97002396  0.02589150    -0.08390
C419        C  0.82935263  0.83130849  0.03730085    -0.06830
C420        C  0.79269923  0.79866886  0.05334051    -0.08390
C421        C  0.02049529  0.17715515  0.96195284    -0.06830
C422        C  0.02089464  0.17672596  0.98886910    -0.08390
C423        C  0.86109568  0.01665396  0.98908275    -0.06830
C424        C  0.86046892  0.01688690  0.96216812    -0.08390
C425        C  0.92727287  0.06665199  0.92513609    -0.06830
C426        C  0.97056553  0.11007437  0.92506759    -0.08390
C427        C  0.00723753  0.23584153  0.89558604    -0.06830
C428        C  0.01352761  0.20535486  0.91192259    -0.08390
C429        C  0.17986607  0.39249219  0.81042552    -0.06830
C430        C  0.22279095  0.39307725  0.81048495    -0.08390
C431        C  0.51316397  0.47982794  0.84324092    -0.06830
C432        C  0.55646253  0.52333324  0.84340324    -0.08390
C433        C  0.83185896  0.02337909  0.91215068    -0.06830
C434        C  0.80137790  0.02966709  0.89578976    -0.08390
C435        C  0.64264213  0.85671937  0.81175009    -0.06830
C436        C  0.64183285  0.81371491  0.81197436    -0.08390
C437        C  0.86361449  0.86191388  0.98769163    -0.06830
C438        C  0.86324844  0.86215341  0.96083682    -0.08390
C439        C  0.87302063  0.96744316  0.92304003    -0.06830
C440        C  0.87403628  0.92497927  0.92263418    -0.08390
C441        C  0.79906781  0.79068451  0.89550958    -0.06830
C442        C  0.83199822  0.82744094  0.91139312    -0.08390
C443        C  0.17582817  0.17405986  0.98711528    -0.06830
C444        C  0.17540607  0.17422198  0.96025649    -0.08390
C445        C  0.06977277  0.16448404  0.92274483    -0.06830
C446        C  0.11221471  0.16336686  0.92221914    -0.08390
C447        C  0.20965347  0.20475387  0.91063777    -0.06830
C448        C  0.24632474  0.23730997  0.89458288    -0.08390
C449        C  0.02061636  0.17702753  0.48564078    -0.06830
C450        C  0.02059207  0.17627438  0.45872621    -0.08390
C451        C  0.86031724  0.01691296  0.48592076    -0.06830
C452        C  0.86050289  0.01638232  0.45900282    -0.08390
C453        C  0.92765791  0.06698408  0.52272641    -0.06830
C454        C  0.97104839  0.11030473  0.52268807    -0.08390
C455        C  0.73786778  0.68200127  0.71129339    -0.06830
C456        C  0.73756342  0.68183591  0.73807692    -0.08390
C457        C  0.74392674  0.08967243  0.71077054    -0.06830
C458        C  0.74379099  0.08938191  0.73763726    -0.08390
C459        C  0.80209034  0.03061992  0.55231218    -0.06830
C460        C  0.83241782  0.02410297  0.53596575    -0.08390
C461        C  0.64568289  0.85877365  0.63752016    -0.06830
C462        C  0.64495188  0.81580794  0.63744406    -0.08390
C463        C  0.94913447  0.29454039  0.71026854    -0.06830
C464        C  0.94890937  0.29449581  0.73713598    -0.08390
C465        C  0.00808491  0.23619805  0.55200668    -0.06830
C466        C  0.01424420  0.20565885  0.53565396    -0.08390
C467        C  0.35707716  0.29976173  0.71003088    -0.06830
C468        C  0.35687010  0.29957810  0.73682101    -0.08390
C469        C  0.18133345  0.39384118  0.63654802    -0.06830
C470        C  0.22432637  0.39456370  0.63635844    -0.08390
C471        C  0.55816104  0.52492018  0.60488771    -0.06830
C472        C  0.51482951  0.48143568  0.60472227    -0.08390
C473        C  0.17550951  0.17372729  0.46017522    -0.06830
C474        C  0.17553996  0.17425619  0.48703135    -0.08390
C475        C  0.11282206  0.16364167  0.52523947    -0.06830
C476        C  0.07032157  0.16465866  0.52477084    -0.08390
C477        C  0.21048297  0.20542371  0.53650882    -0.06830
C478        C  0.24733155  0.23818857  0.55243119    -0.08390
C479        C  0.86339597  0.86175490  0.46084265    -0.06830
C480        C  0.86333623  0.86223748  0.48769859    -0.08390
C481        C  0.87328388  0.96786563  0.52515631    -0.06830
C482        C  0.87442540  0.92547177  0.52570723    -0.08390
C483        C  0.83292686  0.82812666  0.53733423    -0.06830
C484        C  0.80033361  0.79153115  0.55340364    -0.08390
C485        C  0.52423752  0.06390140  0.60084932    -0.06830
C486        C  0.56770407  0.06504187  0.60116438    -0.08390
C487        C  0.18986615  0.80599687  0.62767624    -0.06830
C488        C  0.23306060  0.84929794  0.62765507    -0.08390
C489        C  0.97579407  0.51470150  0.60083251    -0.06830
C490        C  0.97471455  0.47130011  0.60112884    -0.08390
C491        C  0.17850873  0.01905344  0.46176467    -0.06830
C492        C  0.17822989  0.01953542  0.48868145    -0.08390
C493        C  0.15788979  0.06658049  0.52545448    -0.06830
C494        C  0.15700105  0.10899916  0.52500648    -0.08390
C495        C  0.25046689  0.03342302  0.55452233    -0.06830
C496        C  0.21274788  0.02706139  0.53876852    -0.08390
C497        C  0.01821214  0.85964537  0.48903968    -0.06830
C498        C  0.01828777  0.85894630  0.46212601    -0.08390
C499        C  0.07110295  0.92355888  0.52730830    -0.06830
C500        C  0.11474774  0.96720013  0.52721000    -0.08390
C501        C  0.92921966  0.88141883  0.52547831    -0.06830
C502        C  0.97164348  0.88047078  0.52586569    -0.08390
C503        C  0.01132001  0.82574266  0.53918418    -0.06830
C504        C  0.00512614  0.78810297  0.55491570    -0.08390
C505        C  0.96235804  0.66585140  0.73720153    -0.06830
C506        C  0.96246914  0.66591510  0.71034041    -0.08390
C507        C  0.97387278  0.47095738  0.84656364    -0.06830
C508        C  0.97499778  0.51438571  0.84685921    -0.08390
C509        C  0.37211563  0.07665163  0.71021898    -0.06830
C510        C  0.37199266  0.07663451  0.73708218    -0.08390
C511        C  0.23224106  0.84921757  0.81952892    -0.06830
C512        C  0.18903754  0.80592936  0.81958005    -0.08390
C513        C  0.56673906  0.06439917  0.84638042    -0.06830
C514        C  0.52335495  0.06342584  0.84664115    -0.08390
C515        C  0.17849487  0.01923801  0.98558881    -0.06830
C516        C  0.17789771  0.01943888  0.95867674    -0.08390
C517        C  0.15698339  0.06605396  0.92194063    -0.06830
C518        C  0.15613966  0.10849526  0.92240264    -0.08390
C519        C  0.21185137  0.02660808  0.90851085    -0.06830
C520        C  0.24953688  0.03302614  0.89272275    -0.08390
C521        C  0.01808260  0.85926152  0.95899273    -0.06830
C522        C  0.01846361  0.85884455  0.98591299    -0.08390
C523        C  0.92851575  0.88060825  0.92282535    -0.06830
C524        C  0.97092556  0.87964003  0.92229237    -0.08390
C525        C  0.11397334  0.96664742  0.92039802    -0.06830
C526        C  0.07038347  0.92294327  0.92050731    -0.08390
C527        C  0.01066470  0.82502653  0.90884307    -0.06830
C528        C  0.00447347  0.78744371  0.89305716    -0.08390
loop_ 
_geom_bond_atom_site_label_1 
_geom_bond_atom_site_label_2 
_geom_bond_distance 
_geom_bond_site_symmetry_2 
_ccdc_geom_bond_type 
C1          C521   1.469       .  S
C1          C524   1.467   1_455  S
C1          C526   1.475       .  S
C1          C527   1.472       .  S
C2          C516   1.469       .  S
C2          C517   1.467       .  S
C2          C519   1.471       .  S
C2          C525   1.475   1_545  S
O3            C6   1.265       .  A
O3           Cd8   2.465   1_565  S
C4           O13   1.266       .  A
C4            O9   1.261       .  A
C4          C514   1.437       .  S
O5           C11   1.267       .  A
O5           Cd8   2.509       .  S
C6           O14   1.263       .  A
C6          C511   1.428       .  S
C7           O12   1.265       .  A
C7           O10   1.262       .  A
C7          C520   1.440       .  S
Cd8          O15   2.421       .  S
Cd8          O14   2.426   1_545  S
Cd8          O13   2.507       .  S
Cd8           O9   2.436       .  S
Cd8          O12   2.487       .  S
Cd8          O10   2.469       .  S
C11          O15   1.261       .  A
C11         C510   1.436       .  S
O16          C19   1.261   1_455  A
O16         Cd21   2.437       .  S
C17          O26   1.263       .  A
C17          O22   1.265       .  A
C17         C512   1.428       .  S
O18          C24   1.267       .  A
O18         Cd21   2.509   1_655  S
C19          O27   1.266       .  A
C19         C508   1.438       .  S
C20          O25   1.265   1_455  A
C20          O23   1.262       .  A
C20         C528   1.440       .  S
Cd21         O28   2.422       .  S
Cd21         O27   2.507   1_455  S
Cd21         O26   2.426       .  S
Cd21         O22   2.466       .  S
Cd21         O25   2.488   1_455  S
Cd21         O23   2.469       .  S
C24          O28   1.261   1_655  A
C24         C505   1.436       .  S
C29         C497   1.469       .  S
C29         C499   1.475       .  S
C29         C502   1.467   1_455  S
C29         C503   1.471       .  S
C30         C492   1.469       .  S
C30         C493   1.467       .  S
C30         C496   1.471       .  S
C30         C500   1.475   1_545  S
O31          C34   1.261   1_455  A
O31         Cd36   2.437       .  S
C32          O41   1.263       .  A
C32          O37   1.265       .  A
C32         C487   1.428       .  S
O33          C39   1.265   1_655  A
O33         Cd36   2.487   1_655  S
C34          O42   1.266       .  A
C34         C489   1.437       .  S
C35          O40   1.267       .  A
C35          O38   1.262   1_655  A
C35         C506   1.436       .  S
Cd36         O43   2.469       .  S
Cd36         O42   2.507   1_455  S
Cd36         O41   2.426       .  S
Cd36         O37   2.466       .  S
Cd36         O40   2.509   1_455  S
Cd36         O38   2.422       .  S
C39          O43   1.262       .  A
C39         C504   1.440       .  S
O44          C47   1.265       .  A
O44         Cd49   2.466   1_565  S
C45          O54   1.266       .  A
C45          O50   1.261       .  A
C45         C485   1.437       .  S
O46          C52   1.265       .  A
O46         Cd49   2.487       .  S
C47          O55   1.263       .  A
C47         C488   1.428       .  S
C48          O53   1.267       .  A
C48          O51   1.261       .  A
C48         C509   1.436       .  S
Cd49         O56   2.469       .  S
Cd49         O55   2.426   1_545  S
Cd49         O54   2.507       .  S
Cd49         O50   2.436       .  S
Cd49         O53   2.509       .  S
Cd49         O51   2.422       .  S
C52          O56   1.262       .  A
C52         C495   1.440       .  S
C57         C480   1.464       .  S
C57         C482   1.472       .  S
C57         C483   1.465       .  S
C57         C501   1.466       .  S
C58         C474   1.464       .  S
C58         C475   1.472       .  S
C58         C477   1.466       .  S
C58         C494   1.466       .  S
O59          C62   1.261       .  A
O59         Cd64   2.436       .  S
C60          O69   1.263       .  A
C60          O65   1.265       .  A
C60         C470   1.425       .  S
O61          C67   1.264       .  A
O61         Cd64   2.472       .  S
C62          O70   1.265       .  A
C62         C472   1.436       .  S
C63          O68   1.266       .  A
C63          O66   1.261       .  A
C63         C467   1.431       .  S
Cd64         O71   2.464       .  S
Cd64         O70   2.500       .  S
Cd64         O69   2.421       .  S
Cd64         O65   2.460       .  S
Cd64         O68   2.499       .  S
Cd64         O66   2.408       .  S
C67          O71   1.262       .  A
C67         C478   1.435       .  S
O72          C75   1.260   1_455  A
O72         Cd77   2.430       .  S
C73          O82   1.263       .  A
C73          O78   1.264       .  A
C73         C469   1.425       .  S
O74          C80   1.267       .  A
O74         Cd77   2.515   1_655  S
C75          O83   1.266       .  A
C75         C490   1.437       .  S
C76          O81   1.266   1_455  A
C76          O79   1.261       .  A
C76         C465   1.439       .  S
Cd77         O84   2.417       .  S
Cd77         O83   2.509   1_455  S
Cd77         O82   2.422       .  S
Cd77         O78   2.455       .  S
Cd77         O81   2.489   1_455  S
Cd77         O79   2.465       .  S
C80          O84   1.261   1_655  A
C80         C463   1.436       .  S
O85          C88   1.260       .  A
O85         Cd90   2.429       .  S
C86          O95   1.263       .  A
C86          O91   1.264       .  A
C86         C461   1.425       .  S
O87          C93   1.266       .  A
O87         Cd90   2.490       .  S
C88          O96   1.266       .  A
C88         C486   1.437       .  S
C89          O94   1.268       .  A
C89          O92   1.261       .  A
C89         C457   1.436       .  S
Cd90         O97   2.463       .  S
Cd90         O96   2.508       .  S
Cd90         O95   2.422   1_545  S
Cd90         O91   2.455   1_545  S
Cd90         O94   2.516       .  S
Cd90         O92   2.416       .  S
C93          O97   1.261       .  A
C93         C459   1.439       .  S
O98         C101   1.261       .  A
O98        Cd103   2.436       .  S
C99         O108   1.263       .  A
C99         O104   1.265       .  A
C99         C462   1.425       .  S
O100        C106   1.266       .  A
O100       Cd103   2.498       .  S
C101        O109   1.265       .  A
C101        C471   1.436       .  S
C102        O107   1.264       .  A
C102        O105   1.262       .  A
C102        C484   1.434       .  S
Cd103       O110   2.407       .  S
Cd103       O109   2.498       .  S
Cd103       O108   2.421       .  S
Cd103       O104   2.460       .  S
Cd103       O107   2.471       .  S
Cd103       O105   2.461       .  S
C106        O110   1.261       .  A
C106        C455   1.431       .  S
C111        C451   1.469       .  S
C111        C453   1.461       .  S
C111        C460   1.470       .  S
C111        C481   1.472   1_545  S
C112        C449   1.469       .  S
C112        C454   1.461   1_455  S
C112        C466   1.470       .  S
C112        C476   1.472       .  S
C113        C444   1.464       .  S
C113        C446   1.472       .  S
C113        C447   1.465       .  S
C113        C518   1.466       .  S
C114        C438   1.464       .  S
C114        C440   1.472       .  S
C114        C442   1.465       .  S
C114        C523   1.466       .  S
O115        C118   1.264       .  A
O115       Cd120   2.456   1_565  S
C116        O125   1.266       .  A
C116        O121   1.260       .  A
C116        C513   1.437       .  S
O117        C123   1.266       .  A
O117       Cd120   2.489       .  S
C118        O126   1.263       .  A
C118        C435   1.425       .  S
C119        O124   1.267       .  A
C119        O122   1.261       .  A
C119        C458   1.436       .  S
Cd120       O127   2.465       .  S
Cd120       O126   2.422   1_545  S
Cd120       O125   2.509       .  S
Cd120       O121   2.429       .  S
Cd120       O124   2.516       .  S
Cd120       O122   2.417       .  S
C123        O127   1.261       .  A
C123        C434   1.439       .  S
O128        C131   1.261       .  A
O128       Cd133   2.436       .  S
C129        O138   1.263       .  A
C129        O134   1.265       .  A
C129        C436   1.425       .  S
O130        C136   1.263       .  A
O130       Cd133   2.469       .  S
C131        O139   1.265       .  A
C131        C432   1.435       .  S
C132        O137   1.266       .  A
C132        O135   1.261       .  A
C132        C456   1.431       .  S
Cd133       O140   2.463       .  S
Cd133       O139   2.498       .  S
Cd133       O138   2.420       .  S
Cd133       O134   2.461       .  S
Cd133       O137   2.497       .  S
Cd133       O135   2.408       .  S
C136        O140   1.262       .  A
C136        C441   1.434       .  S
O141        C144   1.265       .  A
O141       Cd146   2.459       .  S
C142        O151   1.265       .  A
C142        O147   1.261       .  A
C142        C431   1.435       .  S
O143        C149   1.264       .  A
O143       Cd146   2.471       .  S
C144        O152   1.263       .  A
C144        C430   1.425       .  S
C145        O150   1.266       .  A
C145        O148   1.261       .  A
C145        C468   1.431       .  S
Cd146       O153   2.462       .  S
Cd146       O152   2.421       .  S
Cd146       O151   2.499       .  S
Cd146       O147   2.435       .  S
Cd146       O150   2.500       .  S
Cd146       O148   2.408       .  S
C149        O153   1.262       .  A
C149        C448   1.434       .  S
O154        C157   1.260   1_455  A
O154       Cd159   2.431       .  S
C155        O164   1.263       .  A
C155        O160   1.264       .  A
C155        C429   1.425       .  S
O156        C162   1.266   1_655  A
O156       Cd159   2.491   1_655  S
C157        O165   1.267       .  A
C157        C507   1.437       .  S
C158        O163   1.268       .  A
C158        O161   1.261   1_655  A
C158        C464   1.436       .  S
Cd159       O166   2.464       .  S
Cd159       O165   2.509   1_455  S
Cd159       O164   2.421       .  S
Cd159       O160   2.455       .  S
Cd159       O163   2.516   1_455  S
Cd159       O161   2.417       .  S
C162        O166   1.261       .  A
C162        C427   1.439       .  S
C167        C424   1.469       .  S
C167        C425   1.461       .  S
C167        C433   1.470       .  S
C167        C439   1.472   1_545  S
C168        C421   1.469       .  S
C168        C426   1.461   1_455  S
C168        C428   1.470       .  S
C168        C445   1.472       .  S
C169        C416   1.472       .  S
C169        C417   1.466       .  S
C169        C419   1.466       .  S
C169        C437   1.464   1_554  S
C170        C411   1.461       .  S
C170        C414   1.470       .  S
C170        C415   1.472   1_455  S
C170        C522   1.469   1_554  S
C171        C407   1.472       .  S
C171        C409   1.469       .  S
C171        C412   1.461   1_545  S
C171        C515   1.468   1_554  S
C172        C404   1.467       .  S
C172        C406   1.465       .  S
C172        C408   1.472       .  S
C172        C443   1.464   1_554  S
O173        C176   1.260       .  A
O173       Cd178   2.430       .  S
C174        O183   1.263       .  A
C174        O179   1.264       .  A
C174        C401   1.424       .  S
O175        C181   1.268       .  A
O175       Cd178   2.516       .  S
C176        O184   1.267       .  A
C176        C398   1.437       .  S
C177        O182   1.266       .  A
C177        O180   1.261       .  A
C177        C413   1.439       .  S
Cd178       O185   2.416       .  S
Cd178       O184   2.509       .  S
Cd178       O183   2.421   1_455  S
Cd178       O179   2.454   1_455  S
Cd178       O182   2.492       .  S
Cd178       O180   2.464       .  S
C181        O185   1.261       .  A
C181        C399   1.436       .  S
O186        C189   1.261       .  A
O186       Cd191   2.436       .  S
C187        O196   1.263       .  A
C187        O192   1.265       .  A
C187        C402   1.425       .  S
O188        C194   1.264       .  A
O188       Cd191   2.472       .  S
C189        O197   1.265       .  A
C189        C395   1.436       .  S
C190        O195   1.266       .  A
C190        O193   1.261       .  A
C190        C393   1.431       .  S
Cd191       O198   2.462       .  S
Cd191       O197   2.499       .  S
Cd191       O196   2.421       .  S
Cd191       O192   2.459       .  S
Cd191       O195   2.499       .  S
Cd191       O193   2.407       .  S
C194        O198   1.262       .  A
C194        C420   1.434       .  S
O199        C202   1.264       .  A
O199       Cd204   2.456       .  S
C200        O209   1.266       .  A
C200        O205   1.260   1_565  A
C200        C390   1.437       .  S
O201        C207   1.267       .  A
O201       Cd204   2.515   1_565  S
C202        O210   1.263       .  A
C202        C391   1.425       .  S
C203        O208   1.266   1_545  A
C203        O206   1.261       .  A
C203        C410   1.438       .  S
Cd204       O211   2.416       .  S
Cd204       O210   2.422       .  S
Cd204       O209   2.509   1_545  S
Cd204       O205   2.429       .  S
Cd204       O208   2.488   1_545  S
Cd204       O206   2.464       .  S
C207        O211   1.261   1_565  A
C207        C387   1.436       .  S
O212        C215   1.265       .  A
O212       Cd217   2.461       .  S
C213        O222   1.265       .  A
C213        O218   1.261       .  A
C213        C396   1.436       .  S
O214        C220   1.264       .  A
O214       Cd217   2.470       .  S
C215        O223   1.263       .  A
C215        C392   1.425       .  S
C216        O221   1.266       .  A
C216        O219   1.261       .  A
C216        C386   1.431       .  S
Cd217       O224   2.463       .  S
Cd217       O223   2.421       .  S
Cd217       O222   2.498       .  S
Cd217       O218   2.437       .  S
Cd217       O221   2.498       .  S
Cd217       O219   2.408       .  S
C220        O224   1.262       .  A
C220        C405   1.434       .  S
C225        C380   1.472       .  S
C225        C382   1.467       .  S
C225        C384   1.465       .  S
C225        C479   1.464       .  S
C226        C375   1.475       .  S
C226        C378   1.472       .  S
C226        C381   1.467   1_545  S
C226        C452   1.469       .  S
C227        C372   1.467       .  S
C227        C374   1.471       .  S
C227        C376   1.475   1_455  S
C227        C450   1.469       .  S
C228        C368   1.472       .  S
C228        C370   1.465       .  S
C228        C371   1.466       .  S
C228        C473   1.464       .  S
O229        C232   1.261       .  A
O229       Cd234   2.435       .  S
C230        O239   1.263       .  A
C230        O235   1.265       .  A
C230        C364   1.425       .  S
O231        C237   1.266       .  A
O231       Cd234   2.499       .  S
C232        O240   1.265       .  A
C232        C365   1.435       .  S
C233        O238   1.264       .  A
C233        O236   1.262       .  A
C233        C383   1.434       .  S
Cd234       O241   2.408       .  S
Cd234       O240   2.499       .  S
Cd234       O239   2.421       .  S
Cd234       O235   2.460       .  S
Cd234       O238   2.470       .  S
Cd234       O236   2.463       .  S
C237        O241   1.261       .  A
C237        C394   1.431       .  S
O242        C245   1.260       .  A
O242       Cd247   2.430       .  S
C243        O252   1.263       .  A
C243        O248   1.264       .  A
C243        C363   1.425       .  S
O244        C250   1.266       .  A
O244       Cd247   2.490       .  S
C245        O253   1.267       .  A
C245        C361   1.437       .  S
C246        O251   1.267       .  A
C246        O249   1.261       .  A
C246        C400   1.436       .  S
Cd247       O254   2.466       .  S
Cd247       O253   2.509       .  S
Cd247       O252   2.422   1_455  S
Cd247       O248   2.455   1_455  S
Cd247       O251   2.516       .  S
Cd247       O249   2.417       .  S
C250        O254   1.261       .  A
C250        C360   1.439       .  S
O255        C258   1.261   1_545  A
O255       Cd260   2.437       .  S
C256        O265   1.263       .  A
C256        O261   1.265       .  A
C256        C356   1.428       .  S
O257        C263   1.265   1_565  A
O257       Cd260   2.489   1_565  S
C258        O266   1.266       .  A
C258        C358   1.438       .  S
C259        O264   1.267       .  A
C259        O262   1.261   1_565  A
C259        C354   1.436       .  S
Cd260       O267   2.470       .  S
Cd260       O266   2.508   1_545  S
Cd260       O265   2.426       .  S
Cd260       O261   2.465       .  S
Cd260       O264   2.510   1_545  S
Cd260       O262   2.422       .  S
C263        O267   1.262       .  A
C263        C377   1.440       .  S
O268        C271   1.265       .  A
O268       Cd273   2.455       .  S
C269        O278   1.266       .  A
C269        O274   1.260   1_565  A
C269        C357   1.437       .  S
O270        C276   1.266   1_565  A
O270       Cd273   2.490   1_565  S
C271        O279   1.263       .  A
C271        C351   1.425       .  S
C272        O277   1.268       .  A
C272        O275   1.261   1_565  A
C272        C388   1.436       .  S
Cd273       O280   2.463       .  S
Cd273       O279   2.422       .  S
Cd273       O278   2.509   1_545  S
Cd273       O274   2.430       .  S
Cd273       O277   2.516   1_545  S
Cd273       O275   2.416       .  S
C276        O280   1.261       .  A
C276        C349   1.439       .  S
O281        C284   1.261       .  A
O281       Cd286   2.437       .  S
C282        O291   1.263       .  A
C282        O287   1.265       .  A
C282        C355   1.428       .  S
O283        C289   1.267       .  A
O283       Cd286   2.508       .  S
C284        O292   1.266       .  A
C284        C362   1.437       .  S
C285        O290   1.265       .  A
C285        O288   1.262       .  A
C285        C373   1.440       .  S
Cd286       O293   2.422       .  S
Cd286       O292   2.506       .  S
Cd286       O291   2.426   1_455  S
Cd286       O287   2.466   1_455  S
Cd286       O290   2.487       .  S
Cd286       O288   2.468       .  S
C289        O293   1.262       .  A
C289        C348   1.436       .  S
O294        C297   1.265       .  A
O294       Cd299   2.460       .  S
C295        O304   1.265       .  A
C295        O300   1.261       .  A
C295        C366   1.435       .  S
O296        C302   1.266       .  A
O296       Cd299   2.498       .  S
C297        O305   1.263       .  A
C297        C352   1.425       .  S
C298        O303   1.264       .  A
C298        O301   1.262       .  A
C298        C369   1.434       .  S
Cd299       O306   2.407       .  S
Cd299       O305   2.422       .  S
Cd299       O304   2.498       .  S
Cd299       O300   2.436       .  S
Cd299       O303   2.470       .  S
Cd299       O301   2.460       .  S
C302        O306   1.261       .  A
C302        C385   1.431       .  S
C307        C345   1.461       .  S
C307        C359   1.470       .  S
C307        C379   1.472   1_455  S
C307        C498   1.469       .  S
C308        C346   1.461   1_545  S
C308        C350   1.470       .  S
C308        C367   1.472       .  S
C308        C491   1.469       .  S
C309        C341   1.475   1_455  S
C309        C344   1.471       .  S
C309        C403   1.467       .  S
C309        C422   1.469   1_554  S
C310        C340   1.471       .  S
C310        C342   1.475       .  S
C310        C418   1.467   1_545  S
C310        C423   1.469   1_554  S
O311        C314   1.265       .  A
O311       Cd316   2.467   1_655  S
C312        O321   1.266       .  A
C312        O317   1.261       .  A
C312        C397   1.438       .  S
O313        C319   1.267       .  A
O313       Cd316   2.508       .  S
C314        O322   1.263       .  A
C314        C338   1.428       .  S
C315        O320   1.265       .  A
C315        O318   1.262       .  A
C315        C343   1.440       .  S
Cd316       O323   2.422       .  S
Cd316       O322   2.426   1_455  S
Cd316       O321   2.507       .  S
Cd316       O317   2.438       .  S
Cd316       O320   2.487       .  S
Cd316       O318   2.469       .  S
C319        O323   1.262       .  A
C319        C347   1.436       .  S
O324        C327   1.265       .  A
O324       Cd329   2.466       .  S
C325        O334   1.266       .  A
C325        O330   1.261   1_565  A
C325        C389   1.437       .  S
O326        C332   1.265   1_565  A
O326       Cd329   2.487   1_565  S
C327        O335   1.263       .  A
C327        C337   1.428       .  S
C328        O333   1.267       .  A
C328        O331   1.262   1_565  A
C328        C353   1.436       .  S
Cd329       O336   2.468       .  S
Cd329       O335   2.426       .  S
Cd329       O334   2.507   1_545  S
Cd329       O330   2.436       .  S
Cd329       O333   2.509   1_545  S
Cd329       O331   2.422       .  S
C332        O336   1.262       .  A
C332        C339   1.440       .  S
C337        C338   1.202       .  T
C339        C340   1.210       .  T
C341        C342   1.213       .  T
C343        C344   1.210       .  T
C345        C346   1.205       .  T
C347        C348   1.206       .  T
C349        C350   1.209       .  T
C351        C352   1.200       .  T
C353        C354   1.206       .  T
C355        C356   1.202       .  T
C357        C358   1.207       .  T
C359        C360   1.209       .  T
C361        C362   1.207       .  T
C363        C364   1.199       .  T
C365        C366   1.206       .  T
C367        C368   1.211       .  T
C369        C370   1.206       .  T
C371        C372   1.208       .  T
C373        C374   1.210       .  T
C375        C376   1.213       .  T
C377        C378   1.210       .  T
C379        C380   1.211       .  T
C381        C382   1.208       .  T
C383        C384   1.206       .  T
C385        C386   1.203       .  T
C387        C388   1.206       .  T
C389        C390   1.207       .  T
C391        C392   1.200       .  T
C393        C394   1.203       .  T
C395        C396   1.206       .  T
C397        C398   1.207       .  T
C399        C400   1.206       .  T
C401        C402   1.199       .  T
C403        C404   1.208       .  T
C405        C406   1.206       .  T
C407        C408   1.211       .  T
C409        C410   1.209       .  T
C411        C412   1.205       .  T
C413        C414   1.209       .  T
C415        C416   1.211       .  T
C417        C418   1.208       .  T
C419        C420   1.206       .  T
C421        C422   1.209       .  T
C423        C424   1.209       .  T
C425        C426   1.205       .  T
C427        C428   1.209       .  T
C429        C430   1.199       .  T
C431        C432   1.206       .  T
C433        C434   1.209       .  T
C435        C436   1.200       .  T
C437        C438   1.206       .  T
C439        C440   1.211       .  T
C441        C442   1.206       .  T
C443        C444   1.206       .  T
C445        C446   1.211       .  T
C447        C448   1.206       .  T
C449        C450   1.209       .  T
C451        C452   1.209       .  T
C453        C454   1.205       .  T
C455        C456   1.203       .  T
C457        C458   1.206       .  T
C459        C460   1.209       .  T
C461        C462   1.199       .  T
C463        C464   1.206       .  T
C465        C466   1.209       .  T
C467        C468   1.203       .  T
C469        C470   1.199       .  T
C471        C472   1.206       .  T
C473        C474   1.206       .  T
C475        C476   1.211       .  T
C477        C478   1.207       .  T
C479        C480   1.206       .  T
C481        C482   1.211       .  T
C483        C484   1.206       .  T
C485        C486   1.207       .  T
C487        C488   1.202       .  T
C489        C490   1.207       .  T
C491        C492   1.209       .  T
C493        C494   1.208       .  T
C495        C496   1.210       .  T
C497        C498   1.209       .  T
C499        C500   1.213       .  T
C501        C502   1.208       .  T
C503        C504   1.210       .  T
C505        C506   1.206       .  T
C507        C508   1.207       .  T
C509        C510   1.206       .  T
C511        C512   1.202       .  T
C513        C514   1.207       .  T
C515        C516   1.209       .  T
C517        C518   1.208       .  T
C519        C520   1.210       .  T
C521        C522   1.209       .  T
C523        C524   1.208       .  T
C525        C526   1.213       .  T
C527        C528   1.210       .  T
