geometry optimzed in LAMMPS
_audit_creation_date              2020-11-30 
_audit_creation_method            'lammps2cif' 
_symmetry_space_group_name_H-M    'P1' 
_symmetry_Int_Tables_number       1 
_symmetry_cell_setting            triclinic 
loop_ 
_symmetry_equiv_pos_as_xyz 
  x,y,z 
_cell_length_a                    32.36347204 
_cell_length_b                    32.84610386695622 
_cell_length_c                    31.263233727992677 
_cell_angle_alpha                 90.18926164259433 
_cell_angle_beta                  89.72572240623872 
_cell_angle_gamma                 89.97417317872961 
loop_ 
_atom_site_label 
_atom_site_type_symbol 
_atom_site_fract_x 
_atom_site_fract_y 
_atom_site_fract_z 
_atom_site_charge 
C1          C  0.54062729  0.01797469  0.97411213     0.02100
C2          C  0.53538872  0.97614123  0.29886144     0.02100
C3          C  0.49600835  0.95987580  0.29412170    -0.18400
C4          C  0.46098600  0.98435592  0.29846954     0.02100
C5          C  0.46540774  0.02569713  0.97706579     0.02100
C6          C  0.50528021  0.04253590  0.98004251    -0.18400
H7          H  0.50881148  0.07465612  0.98716166     0.04100
H8          H  0.49264218  0.92794177  0.28588196     0.04100
C9          C  0.82102120  0.87346640  0.27888530     0.86300
C10         C  0.84246277  0.89207202  0.31815100    -0.53900
C11         C  0.88419060  0.88563973  0.31931761     0.09200
C12         C  0.90101255  0.86121470  0.28095980     0.20200
C13         C  0.84482765  0.89239275  0.24120487    -0.54600
C14         C  0.88645947  0.88614438  0.24215621     0.09400
C15         C  0.83330805  0.82859710  0.27891496    -0.54200
C16         C  0.87491738  0.82186245  0.28005977     0.09900
H17         H  0.82624992  0.90998069  0.34221377     0.14400
H18         H  0.93494584  0.85621299  0.28174618     0.00200
H19         H  0.83098344  0.91179458  0.21726062     0.14700
H20         H  0.81074131  0.80411540  0.27899012     0.14500
C21         C  0.91374719  0.90729491  0.21154189     0.42300
N22         N  0.93037978  0.94762649  0.16052829     0.01200
C23         C  0.10619276  0.94230765  0.36622394    -0.06700
H24         H  0.13485745  0.96320158  0.19571842     0.06700
C25         C  0.05368623  0.09768200  0.18655019    -0.07000
Co26       Co  0.00544557  0.92041011  0.11275010     0.74200
N27         N  0.08027243  0.95291319  0.15738292    -0.26200
Co28       Co  0.07980187  0.99738444  0.11001102     0.74100
C29         C  0.09246498  0.08607851  0.20642987     0.42400
N30         N  0.95603193  0.06701970  0.15837771     0.00800
N31         N  0.07833584  0.04355337  0.15643768     0.00900
N32         N  0.05779888  0.89265241  0.37066449    -0.47100
H33         H  0.97020065  0.86616414  0.19882844     0.06700
N34         N  0.05168080  0.92422963  0.15802504     0.01200
N35         N  0.07656655  0.04221937  0.06234071     0.00900
C36         C  0.08884173  0.08427354  0.34475987     0.42500
N37         N  0.92785241  0.03806044  0.15969036    -0.25700
C38         C  0.94979158  0.89155640  0.36935654    -0.06600
N39         N  0.90191905  0.94082491  0.19003957    -0.46800
N40         N  0.10370168  0.05083607  0.36486294    -0.47000
C41         C  0.91033278  0.90517221  0.35183031     0.42300
N42         N  0.05095495  0.92175146  0.06576824     0.01200
N43         N  0.92624043  0.03699693  0.06632704    -0.25700
N44         N  0.95999471  0.92003167  0.16052123    -0.26200
N45         N  0.95466202  0.06575402  0.06609660     0.00800
H46         H  0.87117152  0.02773175  0.36188283     0.06700
H47         H  0.03078098  0.12176000  0.36080307     0.06700
N48         N  0.07912251  0.95086059  0.06436057    -0.26200
N49         N  0.04755010  0.06986356  0.15618463    -0.25900
N50         N  0.92858736  0.94627478  0.06804361     0.01200
C51         C  0.09200714  0.90866970  0.20920701     0.42600
C52         C  0.90111890  0.04634584  0.19154525    -0.07100
N53         N  0.04574380  0.06848616  0.06370057    -0.25900
H54         H  0.03405360  0.12370786  0.19278686     0.06700
N55         N  0.05785808  0.89705675  0.18814836    -0.47100
H56         H  0.87374012  0.02898993  0.19939551     0.06700
C57         C  0.91364675  0.08289789  0.34947930     0.42400
C58         C  0.95239486  0.89325838  0.19214234    -0.06600
Co59       Co  0.92751529  0.99215902  0.11364168     0.73800
N60         N  0.94963197  0.09584389  0.18716534    -0.46800
C61         C  0.09189858  0.90359996  0.34876909     0.42700
N62         N  0.89912451  0.93901961  0.37331709    -0.46800
Co63       Co  0.00098011  0.06820570  0.11112901     0.73900
C64         C  0.05065014  0.09581678  0.36619036    -0.07100
C65         C  0.10725070  0.94579105  0.18908782    -0.06700
N66         N  0.95835629  0.91878614  0.06702702    -0.26200
N67         N  0.10639184  0.05224974  0.18610354    -0.47000
H68         H  0.13362526  0.95963460  0.35848737     0.06700
C69         C  0.89888681  0.04494833  0.36857364    -0.07100
Cl70       Cl  0.00344628  0.99449571  0.11179099    -0.50100
C71         C  0.91578076  0.08475168  0.20940427     0.42400
H72         H  0.96762498  0.86458940  0.36184703     0.06700
N73         N  0.94801829  0.09390285  0.37047413    -0.46800
C74         C  0.88256513  0.17377640  0.28073914     0.86300
C75         C  0.90038475  0.15066782  0.31915384    -0.53900
C76         C  0.89355193  0.10971136  0.31838182     0.09200
C77         C  0.86969687  0.09501752  0.27900986     0.20200
C78         C  0.90255619  0.15194735  0.24233956    -0.54600
C79         C  0.89572535  0.11094675  0.24138733     0.09400
C80         C  0.83683111  0.16188402  0.27927911    -0.54200
C81         C  0.82989277  0.12076676  0.27845219     0.09900
H82         H  0.91902082  0.16495516  0.34376962     0.14400
H83         H  0.86471312  0.06156993  0.27816003     0.00200
H84         H  0.92208714  0.16699012  0.21892495     0.14700
H85         H  0.81207836  0.18421326  0.28003482     0.14500
C86         C  0.12490358  0.81659744  0.27432600     0.86300
C87         C  0.10519639  0.83704530  0.31371976    -0.53900
C88         C  0.11151652  0.87813872  0.31585692     0.09200
C89         C  0.13697841  0.89538830  0.27853525     0.20200
C90         C  0.10675561  0.84071623  0.23677257    -0.54600
C91         C  0.11303943  0.88157642  0.23904860     0.09400
C92         C  0.17046580  0.82885971  0.27572828    -0.54200
C93         C  0.17687494  0.86998217  0.27796687     0.09900
H94         H  0.08696441  0.82059229  0.33725589     0.14400
H95         H  0.14169090  0.92884257  0.28039042     0.00200
H96         H  0.08775944  0.82814979  0.21170484     0.14700
H97         H  0.19547517  0.80680352  0.27488308     0.14500
C98         C  0.12480578  0.17495620  0.27737823     0.86300
C99         C  0.10866595  0.15287145  0.23753668    -0.53900
C100        C  0.11530311  0.11179455  0.23713589     0.09200
C101        C  0.13863329  0.09617211  0.27687494     0.20200
C102        C  0.10417615  0.15171622  0.31424600    -0.54600
C103        C  0.11130494  0.11074471  0.31438961     0.09400
C104        C  0.17041045  0.16378852  0.27975778    -0.54200
C105        C  0.17809175  0.12283089  0.27943999     0.09900
H106        H  0.09019828  0.16761506  0.21326151     0.14400
H107        H  0.14429523  0.06281541  0.27659310     0.00200
H108        H  0.08408989  0.16639385  0.33752182     0.14700
H109        H  0.19463653  0.18653261  0.28238096     0.14500
C110        C  0.02370315  0.53324268  0.96420158     0.02100
C111        C  0.98000303  0.53641911  0.96669291     0.02100
C112        C  0.95613176  0.50065694  0.96569892    -0.18400
C113        C  0.97532374  0.46242378  0.96305627     0.02100
C114        C  0.01881935  0.45975432  0.96275806     0.02100
C115        C  0.04265956  0.49508693  0.96344238    -0.18400
H116        H  0.07604880  0.49289999  0.96135417     0.04100
H117        H  0.92270620  0.50254596  0.96659993     0.04100
C118        C  0.09501038  0.29949648  0.02852342    -0.18000
C119        C  0.07845530  0.33873564  0.03149000    -0.20200
C120        C  0.06784419  0.36016010  0.99439183     0.20500
C121        C  0.07423082  0.34230899  0.28770529    -0.03100
C122        C  0.09033356  0.30251345  0.28470541    -0.06100
C123        C  0.10071021  0.28110807  0.32215231     0.20800
C124        C  0.09561268  0.28400690  0.24428504     0.18900
C125        C  0.08585892  0.30583863  0.20714039    -0.17600
C126        C  0.07005705  0.34537508  0.21006209    -0.19800
C127        C  0.06381630  0.36369908  0.25015874     0.20400
C128        C  0.04678336  0.40277137  0.25345596    -0.32900
C129        C  0.03966936  0.42033712  0.29373316     0.01100
C130        C  0.05045940  0.39915852  0.99704524    -0.24200
C131        C  0.11508567  0.24098044  0.31896881    -0.28800
C132        C  0.11676161  0.22080434  0.27909003     0.06800
C133        C  0.10929729  0.24357645  0.24170726    -0.27400
H134        H  0.10264026  0.28340174  0.05764038     0.11500
H135        H  0.07373892  0.35223532  0.06280910     0.12600
H136        H  0.08981966  0.29208985  0.17583259     0.11700
H137        H  0.06225185  0.36143833  0.18097471     0.11000
H138        H  0.03809046  0.41923961  0.22486460     0.16300
H139        H  0.04455608  0.41304488  0.02799512     0.12300
H140        H  0.12313210  0.22480939  0.34791140     0.15100
H141        H  0.11353830  0.23000551  0.21043590     0.14900
C142        C  0.06766183  0.69168106  0.20620088    -0.18000
C143        C  0.05309064  0.65193329  0.20983277    -0.20200
C144        C  0.06036735  0.62966745  0.24715835     0.20500
C145        C  0.08343382  0.64705659  0.28080386    -0.03100
C146        C  0.09739678  0.68749210  0.27745134    -0.06100
C147        C  0.08906162  0.70988079  0.24017255     0.20800
C148        C  0.11860203  0.70585526  0.31176868     0.18900
C149        C  0.12762461  0.68266518  0.01508581    -0.17600
C150        C  0.11411786  0.64227460  0.01822688    -0.19800
C151        C  0.09164936  0.62434889  0.98480461     0.20400
C152        C  0.07461219  0.58528797  0.98907271    -0.32300
C153        C  0.04872277  0.56970896  0.29044720     0.01100
C154        C  0.04332757  0.59102126  0.25218846    -0.24200
C155        C  0.10083648  0.75060891  0.23781783    -0.28800
C156        C  0.11846386  0.77060331  0.27332587     0.06800
C157        C  0.12911054  0.74726138  0.30942261    -0.27400
H158        H  0.06107083  0.70861447  0.17734037     0.11500
H159        H  0.03547337  0.63888153  0.18378085     0.12600
H160        H  0.14391654  0.69622328  0.04176746     0.11700
H161        H  0.12021190  0.62545607  0.04727508     0.11000
H162        H  0.07835238  0.56850345  0.01860305     0.16300
H163        H  0.02386156  0.57829077  0.22735521     0.12300
H164        H  0.09536222  0.76599150  0.20808257     0.15100
H165        H  0.14405378  0.76173635  0.00326976     0.14900
C166        C  0.91799017  0.34141808  0.36704442    -0.18000
C167        C  0.90540420  0.30078291  0.36462536    -0.20200
C168        C  0.90113080  0.28148733  0.32476606     0.20500
C169        C  0.90868151  0.30353198  0.28693227    -0.03100
C170        C  0.92081724  0.34472424  0.28932228    -0.06100
C171        C  0.92602132  0.36354256  0.32963877     0.20800
C172        C  0.92896053  0.36667372  0.25146156     0.18900
C173        C  0.92407759  0.34749948  0.21161558    -0.17600
C174        C  0.91194516  0.30666215  0.20928447    -0.19800
C175        C  0.90466960  0.28428718  0.24676664     0.20400
C176        C  0.89451263  0.24278142  0.24479950    -0.32900
C177        C  0.88942676  0.21978039  0.28251099     0.01100
C178        C  0.89047423  0.24024408  0.32223898    -0.24200
C179        C  0.94071753  0.40360290  0.33185496    -0.28800
C180        C  0.95028039  0.42491219  0.29435287     0.06800
C181        C  0.94362144  0.40677971  0.92020957    -0.27400
H182        H  0.92192221  0.35539793  0.39820527     0.11500
H183        H  0.89981142  0.28419696  0.39398952     0.12600
H184        H  0.93058767  0.36367139  0.84829986     0.11700
H185        H  0.90896391  0.29237608  0.17815854     0.11000
H186        H  0.89113862  0.22844291  0.21379188     0.16300
H187        H  0.88387144  0.22395609  0.35153107     0.12300
H188        H  0.94689851  0.41751632  0.36267221     0.15100
H189        H  0.95199003  0.42312501  0.89136110     0.14900
C190        C  0.88453293  0.63787292  0.23797339    -0.18000
C191        C  0.87142674  0.67824674  0.23386346    -0.20200
C192        C  0.88810580  0.70887556  0.25998540     0.20500
C193        C  0.91791807  0.69876294  0.29093613    -0.03100
C194        C  0.93051572  0.65786997  0.29566394    -0.06100
C195        C  0.91414783  0.62736381  0.26864722     0.20800
C196        C  0.96036030  0.64756694  0.99330996     0.18900
C197        C  0.97703046  0.67817647  0.01950766    -0.17600
C198        C  0.96486862  0.71879281  0.01455708    -0.19800
C199        C  0.93517837  0.72948389  0.31709278     0.20400
C200        C  0.92242773  0.77010868  0.31209698    -0.32900
C201        C  0.89198896  0.78007899  0.28201900     0.01100
C202        C  0.87521727  0.74937409  0.25591418    -0.24200
C203        C  0.92861935  0.58717528  0.27189353    -0.28800
C204        C  0.95882647  0.57703160  0.30218785     0.06800
C205        C  0.97334426  0.60703244  0.99710546    -0.27400
H206        H  0.87160338  0.61487522  0.21703149     0.11500
H207        H  0.84844072  0.68557560  0.21000502     0.12600
H208        H  0.99987287  0.67076353  0.04348989     0.11700
H209        H  0.97835322  0.74188495  0.03500531     0.11000
H210        H  0.93518542  0.79358296  0.99931338     0.16300
H211        H  0.85189180  0.75708519  0.23250826     0.12300
H212        H  0.91776612  0.56419045  0.24966651     0.15100
H213        H  0.99574437  0.59905740  0.02131760     0.14900
C214        C  0.32367033  0.02950721  0.02930510    -0.18000
C215        C  0.28228901  0.03849997  0.02049874    -0.20200
C216        C  0.27194286  0.06724947  0.32194639     0.20500
C217        C  0.30393416  0.08695288  0.29906477    -0.03100
C218        C  0.34566649  0.07747968  0.30752573    -0.06100
C219        C  0.35563189  0.04859447  0.00639437     0.20800
C220        C  0.37752776  0.09565160  0.28308903     0.18900
C221        C  0.36742791  0.12445148  0.25180488    -0.17600
C222        C  0.32615466  0.13467952  0.24424310    -0.19800
C223        C  0.29424668  0.11583990  0.26740895     0.20400
C224        C  0.25285405  0.12582976  0.25986230    -0.32900
C225        C  0.22086012  0.10715789  0.28325392     0.01100
C226        C  0.23048560  0.07712303  0.31347692    -0.24200
C227        C  0.39694070  0.03706752  0.01231330    -0.28800
C228        C  0.42778220  0.05134835  0.31723407     0.06800
C229        C  0.41852605  0.08252394  0.28820541    -0.27400
H230        H  0.33066043  0.00687256  0.05334194     0.11500
H231        H  0.25820211  0.02304713  0.03833102     0.12600
H232        H  0.39143040  0.13865504  0.23273860     0.11700
H233        H  0.31915185  0.15698778  0.21987395     0.11000
H234        H  0.24543645  0.14876561  0.23623720     0.16300
H235        H  0.20588117  0.06298645  0.33180809     0.12300
H236        H  0.40420970  0.01313830  0.03488320     0.15100
H237        H  0.44239160  0.09348796  0.26668602     0.14900
C238        C  0.28021729  0.97335982  0.23570335    -0.18000
C239        C  0.32085143  0.98790174  0.23655128    -0.20200
C240        C  0.35078114  0.96843261  0.26161304     0.20500
C241        C  0.33964011  0.93433072  0.28642266    -0.03100
C242        C  0.29897873  0.91926104  0.28496427    -0.06100
C243        C  0.26907396  0.93883895  0.25948432     0.20800
C244        C  0.28831964  0.88449478  0.30897763     0.18900
C245        C  0.31773091  0.86585798  0.00215681    -0.17600
C246        C  0.35781724  0.88124377  0.00426746    -0.19800
C247        C  0.36901294  0.91535133  0.98006837     0.20400
C248        C  0.40895268  0.93114766  0.98255702    -0.32900
C249        C  0.42012064  0.96538706  0.29135411     0.01100
C250        C  0.39145366  0.98288422  0.26311995    -0.24200
C251        C  0.22877353  0.92317401  0.25796153    -0.28800
C252        C  0.21853282  0.88786759  0.28094671     0.06800
C253        C  0.24827744  0.86898814  0.30664205    -0.27400
H254        H  0.25759876  0.98890624  0.21620488     0.11500
H255        H  0.32879677  0.01454970  0.21789751     0.12600
H256        H  0.30980253  0.83925452  0.02087956     0.11700
H257        H  0.38011093  0.86638879  0.02473199     0.11000
H258        H  0.43109998  0.91766898  0.00425370     0.16300
H259        H  0.40038465  0.00882962  0.24386498     0.12300
H260        H  0.20578226  0.93767364  0.23801840     0.15100
H261        H  0.23994535  0.84247955  0.99231111     0.14900
C262        C  0.65051341  0.92957601  0.20880706    -0.18000
C263        C  0.69094026  0.91490191  0.20603264    -0.20200
C264        C  0.71099102  0.90031409  0.24262537     0.20500
C265        C  0.68923870  0.89761296  0.28164661    -0.03100
C266        C  0.64808260  0.91137542  0.28419720    -0.06100
C267        C  0.62934338  0.92906013  0.24800578     0.20800
C268        C  0.62652550  0.90909699  0.98989137     0.18900
C269        C  0.64572221  0.89194413  0.02573055    -0.17600
C270        C  0.68680467  0.87880455  0.02328506    -0.19800
C271        C  0.70910468  0.88269717  0.31846726     0.20400
C272        C  0.75132268  0.87312200  0.31658480    -0.32900
C273        C  0.77425170  0.87926970  0.27867727     0.01100
C274        C  0.75291698  0.89013979  0.24116025    -0.24200
C275        C  0.59088480  0.94810162  0.25234904    -0.28800
C276        C  0.57087587  0.94882451  0.29212991     0.06800
C277        C  0.58719268  0.92667675  0.99320310    -0.27400
H278        H  0.63628266  0.94246975  0.18061995     0.11500
H279        H  0.70713882  0.91665433  0.17568001     0.12600
H280        H  0.62949481  0.89011369  0.05605962     0.11700
H281        H  0.70146266  0.86699303  0.05175722     0.11000
H282        H  0.76680772  0.86205633  0.01153174     0.16300
H283        H  0.76857506  0.89139262  0.21062261     0.12300
H284        H  0.57752881  0.96430173  0.22558792     0.15100
H285        H  0.57104365  0.92692742  0.02367936     0.14900
C286        C  0.68807754  0.01243720  0.01334183    -0.18000
C287        C  0.72909371  0.02413579  0.00616308    -0.20200
C288        C  0.73822522  0.05604274  0.31124852     0.20500
C289        C  0.70592283  0.07549500  0.28897502    -0.03100
C290        C  0.66461556  0.06310645  0.29548025    -0.06100
C291        C  0.65570730  0.03189117  0.99172157     0.20800
C292        C  0.63236717  0.08198186  0.27259050     0.18900
C293        C  0.64169862  0.11341750  0.24384575    -0.17600
C294        C  0.68252535  0.12642503  0.23821926    -0.19800
C295        C  0.71478567  0.10779015  0.26075420     0.20400
C296        C  0.75558961  0.12152407  0.25635669    -0.32900
C297        C  0.78772414  0.10317304  0.27950528     0.01100
C298        C  0.77901960  0.06967482  0.30589677    -0.24200
C299        C  0.61452186  0.02051233  0.99880629    -0.28800
C300        C  0.58239588  0.03710930  0.30718807     0.06800
C301        C  0.59152497  0.06846220  0.27816590    -0.27400
H302        H  0.68167341  0.98805760  0.03567860     0.11500
H303        H  0.75353524  0.00877005  0.02334566     0.12600
H304        H  0.61736576  0.12817125  0.22594198     0.11700
H305        H  0.68885898  0.15116827  0.21631535     0.11000
H306        H  0.76231667  0.14689357  0.23535419     0.16300
H307        H  0.80372867  0.05568916  0.99066073     0.12300
H308        H  0.60745768  0.99804124  0.02294825     0.15100
H309        H  0.56701212  0.08135281  0.25894866     0.14900
C310        C  0.54049604  0.01828612  0.30745476     0.02100
C311        C  0.53544423  0.97595663  0.63221799     0.02100
C312        C  0.49602872  0.95975655  0.62753444    -0.18400
C313        C  0.46104650  0.98428530  0.63199690     0.02100
C314        C  0.46525261  0.02593067  0.31010030     0.02100
C315        C  0.50509807  0.04281503  0.31321792    -0.18400
H316        H  0.50856722  0.07494342  0.32032940     0.04100
H317        H  0.49260325  0.92783684  0.61926167     0.04100
C318        C  0.82105898  0.87332268  0.61223491     0.86300
C319        C  0.84250779  0.89194777  0.65148911    -0.53900
C320        C  0.88424044  0.88554221  0.65263564     0.09200
C321        C  0.90106032  0.86112751  0.61426816     0.20200
C322        C  0.84483500  0.89226498  0.57453826    -0.54600
C323        C  0.88647461  0.88604005  0.57546834     0.09400
C324        C  0.83337976  0.82846240  0.61225787    -0.54200
C325        C  0.87499420  0.82176052  0.61337411     0.09900
H326        H  0.82629619  0.90984542  0.67556153     0.14400
H327        H  0.93499723  0.85614626  0.61503631     0.00200
H328        H  0.83095735  0.91164268  0.55059156     0.14700
H329        H  0.81083426  0.80396155  0.61232246     0.14500
C330        C  0.91374921  0.90717547  0.54482711     0.42300
N331        N  0.93040295  0.94754263  0.49385551     0.01200
C332        C  0.10625714  0.94210353  0.69949844    -0.06700
H333        H  0.13489358  0.96311475  0.52901552     0.06700
C334        C  0.05379815  0.09753628  0.52005712    -0.07000
Co335      Co  0.00547492  0.92037580  0.44603941     0.74200
N336        N  0.08030939  0.95284410  0.49067665    -0.26200
Co337      Co  0.07984065  0.99736140  0.44335525     0.74100
C338        C  0.09260946  0.08589875  0.53987203     0.42400
N339        N  0.95609701  0.06692187  0.49182349     0.00800
N340        N  0.07840721  0.04345724  0.48982972     0.00900
N341        N  0.05785037  0.89246007  0.70394706    -0.47100
H342        H  0.97020281  0.86604547  0.53208995     0.06700
N343        N  0.05171547  0.92416185  0.49130564     0.01200
N344        N  0.07660363  0.04225788  0.39573898     0.00900
C345        C  0.08898238  0.08411041  0.67807525     0.42500
N346        N  0.92790245  0.03797580  0.49310813    -0.25700
C347        C  0.94984272  0.89143763  0.70267195    -0.06600
N348        N  0.90193285  0.94072324  0.52335318    -0.46800
N349        N  0.10382383  0.05065780  0.69816481    -0.47000
C350        C  0.91038943  0.90507112  0.68514909     0.42300
N351        N  0.05098099  0.92179189  0.39904944     0.01200
N352        N  0.92628698  0.03696456  0.39974498    -0.25700
N353        N  0.96001514  0.91994410  0.49382324    -0.26200
N354        N  0.95470158  0.06572789  0.39953423     0.00800
H355        H  0.87122255  0.02770657  0.69527650     0.06700
H356        H  0.03093237  0.12161209  0.69412293     0.06700
N357        N  0.07914349  0.95090626  0.39766733    -0.26200
N358        N  0.04762193  0.06976847  0.48964575    -0.25900
N359        N  0.92861369  0.94626762  0.40137452     0.01200
C360        C  0.09204621  0.90857591  0.54246958     0.42600
C361        C  0.90116845  0.04625669  0.52496424    -0.07100
N362        N  0.04577707  0.06851615  0.39715146    -0.25900
H363        H  0.03418412  0.12356322  0.52635359     0.06700
N364        N  0.05789584  0.89697051  0.52140999    -0.47100
H365        H  0.87377480  0.02891532  0.53279475     0.06700
C366        C  0.91370581  0.08286936  0.68288099     0.42400
C367        C  0.95240215  0.89314685  0.52542103    -0.06600
Co368      Co  0.92755217  0.99211033  0.44701811     0.73800
N369        N  0.94971016  0.09573099  0.52062609    -0.46800
C370        C  0.09194780  0.90339948  0.68204344     0.42700
N371        N  0.89919844  0.93892278  0.70664088    -0.46800
Co372      Co  0.00102846  0.06816207  0.44458140     0.73900
C373        C  0.05078693  0.09565548  0.69949653    -0.07100
C374        C  0.10728880  0.94570565  0.52237346    -0.06700
N375        N  0.95838192  0.91878096  0.40031950    -0.26200
N376        N  0.10650445  0.05210663  0.51946608    -0.47000
H377        H  0.13369010  0.95942523  0.69175079     0.06700
C378        C  0.89895804  0.04489940  0.70194412    -0.07100
Cl379      Cl  0.00348417  0.99445808  0.44515889    -0.50100
C380        C  0.91585249  0.08464438  0.54284954     0.42400
H381        H  0.96766389  0.86446431  0.69515652     0.06700
N382        N  0.94810593  0.09384086  0.70384265    -0.46800
C383        C  0.88262366  0.17372518  0.61408234     0.86300
C384        C  0.90044164  0.15064462  0.65252675    -0.53900
C385        C  0.89360997  0.10968501  0.65178568     0.09200
C386        C  0.86976387  0.09496254  0.61242674     0.20200
C387        C  0.90262181  0.15186321  0.57571092    -0.54600
C388        C  0.89579124  0.11086230  0.57479752     0.09400
C389        C  0.83688703  0.16182410  0.61261966    -0.54200
C390        C  0.82996388  0.12070378  0.61183986     0.09900
H391        H  0.91908752  0.16494148  0.67712736     0.14400
H392        H  0.86477797  0.06151405  0.61160523     0.00200
H393        H  0.92215007  0.16689123  0.55228227     0.14700
H394        H  0.81212292  0.18414231  0.61333149     0.14500
C395        C  0.12502764  0.81648239  0.60748972     0.86300
C396        C  0.10526792  0.83686729  0.64690092    -0.53900
C397        C  0.11154188  0.87796872  0.64908624     0.09200
C398        C  0.13699572  0.89528109  0.61179562     0.20200
C399        C  0.10686123  0.84060974  0.56995666    -0.54600
C400        C  0.11309460  0.88147498  0.57228295     0.09400
C401        C  0.17056985  0.82880443  0.60892885    -0.54200
C402        C  0.17692641  0.86993193  0.61123116     0.09900
H403        H  0.08705614  0.82036938  0.67041782     0.14400
H404        H  0.14165674  0.92874010  0.61368933     0.00200
H405        H  0.08787926  0.82803931  0.54488019     0.14700
H406        H  0.19560450  0.80677701  0.60806835     0.14500
C407        C  0.12498874  0.17479424  0.61071342     0.86300
C408        C  0.10892321  0.15268897  0.57085870    -0.53900
C409        C  0.11555852  0.11161664  0.57049040     0.09200
C410        C  0.13886064  0.09601994  0.61026764     0.20200
C411        C  0.10431662  0.15155773  0.64756050    -0.54600
C412        C  0.11146910  0.11058887  0.64773188     0.09400
C413        C  0.17059277  0.16365913  0.61317673    -0.54200
C414        C  0.17830490  0.12270764  0.61289799     0.09900
H415        H  0.09045092  0.16741031  0.54657208     0.14400
H416        H  0.14454482  0.06266684  0.61000795     0.00200
H417        H  0.08418726  0.16623372  0.67079662     0.14700
H418        H  0.19479559  0.18642311  0.61584103     0.14500
C419        C  0.02317675  0.53342734  0.29811331     0.02100
C420        C  0.97946933  0.53646201  0.30064234     0.02100
C421        C  0.95572596  0.50062434  0.29972154    -0.18400
C422        C  0.97506003  0.46245570  0.29714542     0.02100
C423        C  0.01856634  0.45992445  0.29683690     0.02100
C424        C  0.04227678  0.49533965  0.29743338    -0.18400
H425        H  0.07567143  0.49326812  0.29530755     0.04100
H426        H  0.92229410  0.50240357  0.30062040     0.04100
C427        C  0.09515841  0.29970010  0.36226789    -0.18000
C428        C  0.07863193  0.33894885  0.36531804    -0.20200
C429        C  0.06791233  0.36040451  0.32827168     0.20500
C430        C  0.07430617  0.34211996  0.62075434    -0.03100
C431        C  0.09041298  0.30232365  0.61783546    -0.06100
C432        C  0.10072672  0.28096244  0.65532982     0.20800
C433        C  0.09577501  0.28377825  0.57744675     0.18900
C434        C  0.08606855  0.30555841  0.54025552    -0.17600
C435        C  0.07025052  0.34509176  0.54309770    -0.19800
C436        C  0.06395545  0.36346522  0.58315987     0.20400
C437        C  0.04694605  0.40255050  0.58637430    -0.32900
C438        C  0.03981083  0.42017969  0.62661470     0.01100
C439        C  0.05048478  0.39938547  0.33100883    -0.24200
C440        C  0.11512803  0.24084035  0.65222289    -0.28800
C441        C  0.11690770  0.22063296  0.61236814     0.06800
C442        C  0.10950459  0.24336260  0.57494376    -0.27400
H443        H  0.10285550  0.28357655  0.39134808     0.11500
H444        H  0.07400230  0.35242284  0.39666279     0.12600
H445        H  0.09008597  0.29177422  0.50897202     0.11700
H446        H  0.06249002  0.36111933  0.51397551     0.11000
H447        H  0.03830437  0.41898807  0.55774649     0.16300
H448        H  0.04463167  0.41323427  0.36198681     0.12300
H449        H  0.12312521  0.22470203  0.68120035     0.15100
H450        H  0.11382996  0.22976956  0.54369464     0.14900
C451        C  0.06827368  0.69150800  0.53902510    -0.18000
C452        C  0.05373605  0.65174081  0.54259147    -0.20200
C453        C  0.06090857  0.62947279  0.57993799     0.20500
C454        C  0.08387680  0.64686374  0.61365505    -0.03100
C455        C  0.09780417  0.68731609  0.61036694    -0.06100
C456        C  0.08953427  0.70972143  0.57308448     0.20800
C457        C  0.11888433  0.70568512  0.64476429     0.18900
C458        C  0.12733214  0.68288795  0.34843377    -0.17600
C459        C  0.11374835  0.64253336  0.35168752    -0.19800
C460        C  0.09106630  0.62463256  0.31840832     0.20400
C461        C  0.07407651  0.58556385  0.32275820    -0.32300
C462        C  0.04911337  0.56953165  0.62321065     0.01100
C463        C  0.04383680  0.59083406  0.58492767    -0.24200
C464        C  0.10121501  0.75048384  0.57081684    -0.28800
C465        C  0.11868366  0.77047738  0.60641282     0.06800
C466        C  0.12930645  0.74711529  0.64249922    -0.27400
H467        H  0.06174566  0.70844822  0.51015563     0.11500
H468        H  0.03620595  0.63868357  0.51647862     0.12600
H469        H  0.14383015  0.69641798  0.37499418     0.11700
H470        H  0.11999109  0.62571057  0.38069867     0.11000
H471        H  0.07800552  0.56875921  0.35224882     0.16300
H472        H  0.02442394  0.57811077  0.56004567     0.12300
H473        H  0.09579890  0.76589209  0.54108782     0.15100
H474        H  0.14405176  0.76185609  0.33638822     0.14900
C475        C  0.91831651  0.34147206  0.70005112    -0.18000
C476        C  0.90572241  0.30083606  0.69772335    -0.20200
C477        C  0.90133918  0.28149267  0.65790364     0.20500
C478        C  0.90879190  0.30348934  0.62001798    -0.03100
C479        C  0.92094323  0.34468289  0.62231747    -0.06100
C480        C  0.92625012  0.36354935  0.66259377     0.20800
C481        C  0.92900098  0.36658455  0.58440610     0.18900
C482        C  0.92401054  0.34736029  0.54460019    -0.17600
C483        C  0.91185473  0.30652294  0.54235882    -0.19800
C484        C  0.90466603  0.28419523  0.57989171     0.20400
C485        C  0.89448385  0.24268865  0.57801450    -0.32900
C486        C  0.88949489  0.21973441  0.61577489     0.01100
C487        C  0.89066716  0.24024864  0.65546825    -0.24200
C488        C  0.94095365  0.40360929  0.66471862    -0.28800
C489        C  0.95043968  0.42487137  0.62716713     0.06800
C490        C  0.94341611  0.40683788  0.25425152    -0.27400
H491        H  0.92233231  0.35548943  0.73118160     0.11500
H492        H  0.90020669  0.28428729  0.72712586     0.12600
H493        H  0.93027117  0.36389946  0.18226090     0.11700
H494        H  0.90878777  0.29219968  0.51126090     0.11000
H495        H  0.89102724  0.22830619  0.54703841     0.16300
H496        H  0.88413590  0.22400632  0.68480406     0.12300
H497        H  0.94721287  0.41755599  0.69550233     0.15100
H498        H  0.95167546  0.42327312  0.22542633     0.14900
C499        C  0.88487441  0.63789827  0.57076691    -0.18000
C500        C  0.87170825  0.67826365  0.56677303    -0.20200
C501        C  0.88833863  0.70884712  0.59298654     0.20500
C502        C  0.91817149  0.69869858  0.62390317    -0.03100
C503        C  0.93083237  0.65781285  0.62851084    -0.06100
C504        C  0.91450222  0.62735218  0.60141297     0.20800
C505        C  0.95977504  0.64759729  0.32708747     0.18900
C506        C  0.97649051  0.67823585  0.35321326    -0.17600
C507        C  0.96444567  0.71886582  0.34811676    -0.19800
C508        C  0.93538368  0.72937564  0.65015103     0.20400
C509        C  0.92256666  0.76999296  0.64527777    -0.32900
C510        C  0.89210827  0.77999371  0.61523409     0.01100
C511        C  0.87538128  0.74933495  0.58904060    -0.24200
C512        C  0.92900595  0.58716934  0.60456928    -0.28800
C513        C  0.95920590  0.57698417  0.63485450     0.06800
C514        C  0.97267622  0.60705343  0.33101067    -0.27400
H515        H  0.87197510  0.61493516  0.54976302     0.11500
H516        H  0.84870968  0.68562144  0.54293741     0.12600
H517        H  0.99928441  0.67083385  0.37724849     0.11700
H518        H  0.97796439  0.74198054  0.36851235     0.11000
H519        H  0.93496413  0.79367424  0.33263420     0.16300
H520        H  0.85204189  0.75707440  0.56565981     0.12300
H521        H  0.91816218  0.56421689  0.58230034     0.15100
H522        H  0.99506360  0.59910414  0.35524728     0.14900
C523        C  0.32347539  0.02964487  0.36222776    -0.18000
C524        C  0.28209423  0.03863917  0.35343838    -0.20200
C525        C  0.27216436  0.06728115  0.65566802     0.20500
C526        C  0.30416947  0.08699926  0.63282077    -0.03100
C527        C  0.34590009  0.07753749  0.64131501    -0.06100
C528        C  0.35542739  0.04873891  0.33931232     0.20800
C529        C  0.37777173  0.09571253  0.61689508     0.18900
C530        C  0.36768821  0.12452398  0.58561860    -0.17600
C531        C  0.32641819  0.13473004  0.57801516    -0.19800
C532        C  0.29449771  0.11586413  0.60113802     0.20400
C533        C  0.25310593  0.12579113  0.59350102    -0.32900
C534        C  0.22108958  0.10708745  0.61683241     0.01100
C535        C  0.23070489  0.07710078  0.64711605    -0.24200
C536        C  0.39673609  0.03722878  0.34524042    -0.28800
C537        C  0.42799348  0.05131575  0.65095158     0.06800
C538        C  0.41876045  0.08255271  0.62198947    -0.27400
H539        H  0.33047315  0.00701040  0.38626225     0.11500
H540        H  0.25801293  0.02318730  0.37127972     0.12600
H541        H  0.39170005  0.13873396  0.56657011     0.11700
H542        H  0.31942728  0.15702926  0.55363331     0.11000
H543        H  0.24570339  0.14869845  0.56984040     0.16300
H544        H  0.20608656  0.06294738  0.66541232     0.12300
H545        H  0.40401141  0.01330832  0.36781854     0.15100
H546        H  0.44262509  0.09351476  0.60046761     0.14900
C547        C  0.28012135  0.97369341  0.56959328    -0.18000
C548        C  0.32075578  0.98823415  0.57045812    -0.20200
C549        C  0.35073422  0.96861664  0.59533118     0.20500
C550        C  0.33963713  0.93438157  0.61995571    -0.03100
C551        C  0.29897863  0.91930977  0.61846758    -0.06100
C552        C  0.26902980  0.93902118  0.59315639     0.20800
C553        C  0.28837196  0.88439670  0.64226698     0.18900
C554        C  0.31792824  0.86562043  0.33480103    -0.17600
C555        C  0.35799065  0.88106725  0.33693036    -0.19800
C556        C  0.36910910  0.91526964  0.31284001     0.20400
C557        C  0.40899810  0.93117809  0.31541802    -0.32900
C558        C  0.42013643  0.96539400  0.62490362     0.01100
C559        C  0.39141885  0.98303572  0.59682086    -0.24200
C560        C  0.22874456  0.92332478  0.59156097    -0.28800
C561        C  0.21855951  0.88786507  0.61431428     0.06800
C562        C  0.24834148  0.86887576  0.63987644    -0.27400
H563        H  0.25746665  0.98935032  0.55023707     0.11500
H564        H  0.32866559  0.01499081  0.55196056     0.12600
H565        H  0.31005267  0.83896431  0.35346471     0.11700
H566        H  0.38031865  0.86620256  0.35734723     0.11000
H567        H  0.43115837  0.91770589  0.33710482     0.16300
H568        H  0.40032469  0.00905557  0.57766655     0.12300
H569        H  0.20572955  0.93791823  0.57172337     0.15100
H570        H  0.24011233  0.84226296  0.32510851     0.14900
C571        C  0.65044649  0.92911206  0.54213193    -0.18000
C572        C  0.69088071  0.91445119  0.53936134    -0.20200
C573        C  0.71097336  0.89997101  0.57597746     0.20500
C574        C  0.68925009  0.89734902  0.61502295    -0.03100
C575        C  0.64809041  0.91110556  0.61757515    -0.06100
C576        C  0.62931192  0.92869507  0.58135403     0.20800
C577        C  0.62650783  0.90952116  0.32348491     0.18900
C578        C  0.64575795  0.89255115  0.35938944    -0.17600
C579        C  0.68683240  0.87938786  0.35694625    -0.19800
C580        C  0.70915285  0.88253224  0.65186662     0.20400
C581        C  0.75137743  0.87298577  0.64997853    -0.32900
C582        C  0.77428160  0.87908136  0.61204505     0.01100
C583        C  0.75291345  0.88983954  0.57451216    -0.24200
C584        C  0.59085673  0.94775238  0.58568844    -0.28800
C585        C  0.57089602  0.94858961  0.62549515     0.06800
C586        C  0.58718172  0.92711978  0.32676022    -0.27400
H587        H  0.63618605  0.94192848  0.51392191     0.11500
H588        H  0.70705342  0.91613692  0.50898973     0.12600
H589        H  0.62958091  0.89088628  0.38975849     0.11700
H590        H  0.70153532  0.86772371  0.38546074     0.11000
H591        H  0.76679420  0.86251593  0.34513518     0.16300
H592        H  0.76856335  0.89104716  0.54396637     0.12300
H593        H  0.57747476  0.96388715  0.55889791     0.15100
H594        H  0.57106508  0.92750298  0.35725400     0.14900
C595        C  0.68790406  0.01257025  0.34672366    -0.18000
C596        C  0.72894338  0.02416564  0.33949947    -0.20200
C597        C  0.73832951  0.05601553  0.64476212     0.20500
C598        C  0.70605465  0.07528027  0.62227030    -0.03100
C599        C  0.66475527  0.06284473  0.62872494    -0.06100
C600        C  0.65555718  0.03214175  0.32518122     0.20800
C601        C  0.63253451  0.08155009  0.60564255     0.18900
C602        C  0.64188781  0.11283106  0.57671880    -0.17600
C603        C  0.68270476  0.12588130  0.57112920    -0.19800
C604        C  0.71493419  0.10744482  0.59388731     0.20400
C605        C  0.75571990  0.12125067  0.58955026    -0.32900
C606        C  0.78781763  0.10307882  0.61290033     0.01100
C607        C  0.77910767  0.06970338  0.63945824    -0.24200
C608        C  0.61435297  0.02084415  0.33228484    -0.28800
C609        C  0.58254078  0.03684828  0.64044204     0.06800
C610        C  0.59169437  0.06803777  0.61123743    -0.27400
H611        H  0.68146449  0.98816869  0.36902271     0.11500
H612        H  0.75336691  0.00870229  0.35661323     0.12600
H613        H  0.61757642  0.12744247  0.55865668     0.11700
H614        H  0.68905275  0.15051167  0.54908954     0.11000
H615        H  0.76246363  0.14652851  0.56843089     0.16300
H616        H  0.80364235  0.05557706  0.32397769     0.12300
H617        H  0.60725829  0.99839824  0.35643848     0.15100
H618        H  0.56719581  0.08081895  0.59192014     0.14900
C619        C  0.54062467  0.01808438  0.64082269     0.02100
C620        C  0.53545389  0.97584444  0.96550251     0.02100
C621        C  0.49603776  0.95961567  0.96091817    -0.18400
C622        C  0.46106037  0.98413913  0.96540996     0.02100
C623        C  0.46540296  0.02583654  0.64369627     0.02100
C624        C  0.50528197  0.04265929  0.64671278    -0.18400
H625        H  0.50882259  0.07477681  0.65384091     0.04100
H626        H  0.49260334  0.92768970  0.95267554     0.04100
C627        C  0.82113599  0.87334282  0.94546288     0.86300
C628        C  0.84250260  0.89200005  0.98474677    -0.53900
C629        C  0.88423405  0.88559158  0.98598939     0.09200
C630        C  0.90113356  0.86113988  0.94768752     0.20200
C631        C  0.84499613  0.89223682  0.90780079    -0.54600
C632        C  0.88662667  0.88601096  0.90882959     0.09400
C633        C  0.83345474  0.82847930  0.94556983    -0.54200
C634        C  0.87506904  0.82177391  0.94679038     0.09900
H635        H  0.82623409  0.90990510  0.00877259     0.14400
H636        H  0.93506892  0.85616192  0.94853108     0.00200
H637        H  0.83120038  0.91161268  0.88380799     0.14700
H638        H  0.81090562  0.80398213  0.94561203     0.14500
C639        C  0.91393678  0.90714818  0.87823105     0.42300
N640        N  0.93054424  0.94745243  0.82718903     0.01200
C641        C  0.10616738  0.94221732  0.03292331    -0.06700
H642        H  0.13494534  0.96297584  0.86237643     0.06700
C643        C  0.05393966  0.09738765  0.85331119    -0.07000
Co644      Co  0.00556185  0.92021927  0.77933994     0.74200
N645        N  0.08040948  0.95266047  0.82397552    -0.26200
Co646      Co  0.07994615  0.99717676  0.77664295     0.74100
C647        C  0.09275457  0.08576245  0.87311179     0.42400
N648        N  0.95622620  0.06682011  0.82514136     0.00800
N649        N  0.07853470  0.04328696  0.82310954     0.00900
N650        N  0.05776468  0.89257578  0.03741643    -0.47100
H651        H  0.97033801  0.86596222  0.86545156     0.06700
N652        N  0.05182214  0.92397156  0.82459551     0.01200
N653        N  0.07671391  0.04207456  0.72902755     0.00900
C654        C  0.08883493  0.08414936  0.01129482     0.42500
N655        N  0.92802377  0.03788226  0.82642696    -0.25700
C656        C  0.94977735  0.89153554  0.03608875    -0.06600
N657        N  0.90211694  0.94068461  0.85673964    -0.46800
N658        N  0.10367634  0.05074238  0.03146161    -0.47000
C659        C  0.91032541  0.90513429  0.01853611     0.42300
N660        N  0.05105127  0.92160287  0.73233684     0.01200
N661        N  0.92638944  0.03687358  0.73307299    -0.25700
N662        N  0.96013401  0.91983103  0.82714235    -0.26200
N663        N  0.95481351  0.06562834  0.73285824     0.00800
H664        H  0.87108151  0.02781195  0.02852014     0.06700
H665        H  0.03077303  0.12167380  0.02724963     0.06700
N666        N  0.07922202  0.95070995  0.73095131    -0.26200
N667        N  0.04775326  0.06960297  0.82292440    -0.25900
N668        N  0.92869498  0.94615708  0.73469668     0.01200
C669        C  0.09210809  0.90842481  0.87581496     0.42600
C670        C  0.90125703  0.04620169  0.85824347    -0.07100
N671        N  0.04589703  0.06834519  0.73044474    -0.25900
H672        H  0.03433439  0.12342464  0.85959092     0.06700
N673        N  0.05798148  0.89679667  0.85472510    -0.47100
H674        H  0.87383940  0.02888546  0.86604497     0.06700
C675        C  0.91356634  0.08297407  0.01610364     0.42400
C676        C  0.95254434  0.89306653  0.85877622    -0.06600
Co677      Co  0.92766532  0.99200797  0.78034174     0.73800
N678        N  0.94980924  0.09566395  0.85390278    -0.46800
C679        C  0.09186581  0.90348848  0.01550611     0.42700
N680        N  0.89910688  0.93900177  0.03998184    -0.46800
Co681      Co  0.00115573  0.06802203  0.77788420     0.73900
C682        C  0.05063437  0.09573522  0.03268997    -0.07100
C683        C  0.10736057  0.94554591  0.85570554    -0.06700
N684        N  0.95844989  0.91865545  0.73363622    -0.26200
N685        N  0.10664569  0.05195616  0.85272599    -0.47000
H686        H  0.13360011  0.95953302  0.02515959     0.06700
C687        C  0.89881549  0.04500828  0.03518468    -0.07100
Cl688      Cl  0.00359267  0.99431319  0.77845960    -0.50100
C689        C  0.91592340  0.08460765  0.87610319     0.42400
H690        H  0.96761630  0.86456488  0.02860876     0.06700
N691        N  0.94796074  0.09395175  0.03706512    -0.46800
C692        C  0.88258425  0.17378202  0.94717791     0.86300
C693        C  0.90034350  0.15073512  0.98567429    -0.53900
C694        C  0.89350641  0.10977196  0.98496488     0.09200
C695        C  0.86971331  0.09501767  0.94558652     0.20200
C696        C  0.90263101  0.15187489  0.90885633    -0.54600
C697        C  0.89579970  0.11087324  0.90797811     0.09400
C698        C  0.83684703  0.16188388  0.94567155    -0.54200
C699        C  0.82991300  0.12076261  0.94492981     0.09900
H700        H  0.91894311  0.16506297  0.01029391     0.14400
H701        H  0.86473083  0.06156863  0.94479192     0.00200
H702        H  0.92220829  0.16686752  0.88544757     0.14700
H703        H  0.81209022  0.18421009  0.94635666     0.14500
C704        C  0.12507330  0.81647165  0.94110199     0.86300
C705        C  0.10524348  0.83689741  0.98045953    -0.53900
C706        C  0.11146618  0.87801691  0.98257714     0.09200
C707        C  0.13693217  0.89529648  0.94527472     0.20200
C708        C  0.10690096  0.84052008  0.90351051    -0.54600
C709        C  0.11309355  0.88139435  0.90575492     0.09400
C710        C  0.17059503  0.82886006  0.94257882    -0.54200
C711        C  0.17688766  0.86999676  0.94481350     0.09900
H712        H  0.08704502  0.82041221  0.00399672     0.14400
H713        H  0.14156320  0.92876301  0.94710778     0.00200
H714        H  0.08793415  0.82788273  0.87845348     0.14700
H715        H  0.19566801  0.80687144  0.94181679     0.14500
C716        C  0.12502195  0.17472927  0.94387487     0.86300
C717        C  0.10909176  0.15258956  0.90398197    -0.53900
C718        C  0.11570057  0.11150998  0.90369707     0.09200
C719        C  0.13885756  0.09594819  0.94357506     0.20200
C720        C  0.10420926  0.15153980  0.98066986    -0.54600
C721        C  0.11135222  0.11057348  0.98092583     0.09400
C722        C  0.17061211  0.16357450  0.94651986    -0.54200
C723        C  0.17830310  0.12261788  0.94629805     0.09900
H724        H  0.09069729  0.16728502  0.87961543     0.14400
H725        H  0.14452750  0.06259257  0.94337272     0.00200
H726        H  0.08402261  0.16625342  0.00382682     0.14700
H727        H  0.19482165  0.18632868  0.94920939     0.14500
C728        C  0.02349761  0.53329084  0.63083670     0.02100
C729        C  0.97979250  0.53639074  0.63330527     0.02100
C730        C  0.95599222  0.50058924  0.63237951    -0.18400
C731        C  0.97526847  0.46239073  0.62987073     0.02100
C732        C  0.01876939  0.45979805  0.62962609     0.02100
C733        C  0.04253703  0.49517538  0.63021346    -0.18400
H734        H  0.07593136  0.49305024  0.62814280     0.04100
H735        H  0.92256266  0.50241843  0.63325246     0.04100
C736        C  0.09509764  0.29959563  0.69541252    -0.18000
C737        C  0.07857783  0.33885131  0.69838129    -0.20200
C738        C  0.06793539  0.36026793  0.66128621     0.20500
C739        C  0.07426139  0.34203086  0.95385874    -0.03100
C740        C  0.09039025  0.30224296  0.95094192    -0.06100
C741        C  0.10069580  0.28088397  0.98843961     0.20800
C742        C  0.09578872  0.28370582  0.91055386     0.18900
C743        C  0.08610450  0.30549421  0.87336031    -0.17600
C744        C  0.07028163  0.34502827  0.87619994    -0.19800
C745        C  0.06394821  0.36339126  0.91626239     0.20400
C746        C  0.04695361  0.40248621  0.91947775    -0.32900
C747        C  0.03978713  0.42009988  0.95972238     0.01100
C748        C  0.05054660  0.39926806  0.66393910    -0.24200
C749        C  0.11514480  0.24078134  0.98533649    -0.28800
C750        C  0.11694762  0.22057094  0.94548596     0.06800
C751        C  0.10953198  0.24329095  0.90805583    -0.27400
H752        H  0.10274165  0.28350432  0.72452765     0.11500
H753        H  0.07390062  0.35236449  0.72970017     0.12600
H754        H  0.09015108  0.29171903  0.84207641     0.11700
H755        H  0.06254956  0.36106517  0.84707517     0.11000
H756        H  0.03836075  0.41894680  0.89084891     0.16300
H757        H  0.04466682  0.41316611  0.69488766     0.12300
H758        H  0.12313707  0.22464575  0.01431795     0.15100
H759        H  0.11386767  0.22969883  0.87680882     0.14900
C760        C  0.06891041  0.69135414  0.87242024    -0.18000
C761        C  0.05437910  0.65158137  0.87594832    -0.20200
C762        C  0.06139430  0.62934433  0.91334815     0.20500
C763        C  0.08423504  0.64676033  0.94714486    -0.03100
C764        C  0.09813352  0.68722866  0.94390191    -0.06100
C765        C  0.08998948  0.70961180  0.90657433     0.20800
C766        C  0.11903818  0.70564209  0.97838958     0.18900
C767        C  0.12755828  0.68270233  0.68143184    -0.17600
C768        C  0.11400703  0.64233353  0.68462352    -0.19800
C769        C  0.09141749  0.62443421  0.65127608     0.20400
C770        C  0.07440698  0.58537058  0.65558055    -0.32300
C771        C  0.04939472  0.56944861  0.95663454     0.01100
C772        C  0.04426951  0.59072296  0.91831262    -0.24200
C773        C  0.10159659  0.75039667  0.90435772    -0.28800
C774        C  0.11882469  0.77044664  0.94004506     0.06800
C775        C  0.12935890  0.74710646  0.97617966    -0.27400
H776        H  0.06249170  0.70827409  0.84350974     0.11500
H777        H  0.03696245  0.63850030  0.84976722     0.12600
H778        H  0.14396850  0.69623600  0.70804895     0.11700
H779        H  0.12018541  0.62550373  0.71364507     0.11000
H780        H  0.07825137  0.56856907  0.68508564     0.16300
H781        H  0.02492671  0.57799652  0.89337390     0.12300
H782        H  0.09631798  0.76578546  0.87458456     0.15100
H783        H  0.14414960  0.76171004  0.66952325     0.14900
C784        C  0.91783051  0.34166491  0.03311155    -0.18000
C785        C  0.90525240  0.30102116  0.03077406    -0.20200
C786        C  0.90107777  0.28161971  0.99095896     0.20500
C787        C  0.90871228  0.30357427  0.95308320    -0.03100
C788        C  0.92085514  0.34477400  0.95538952    -0.06100
C789        C  0.92596660  0.36369362  0.99566642     0.20800
C790        C  0.92911356  0.36662397  0.91749056     0.18900
C791        C  0.92431028  0.34735059  0.87768495    -0.17600
C792        C  0.91215799  0.30651229  0.87543604    -0.19800
C793        C  0.90478840  0.28422903  0.91296175     0.20400
C794        C  0.89462462  0.24271682  0.91108434    -0.32900
C795        C  0.88945762  0.21979923  0.94884607     0.01100
C796        C  0.89043881  0.24036093  0.98852169    -0.24200
C797        C  0.94070016  0.40374761  0.99781302    -0.28800
C798        C  0.95041589  0.42494820  0.96028162     0.06800
C799        C  0.94348316  0.40674853  0.58710556    -0.27400
H800        H  0.92168876  0.35572246  0.06424413     0.11500
H801        H  0.89958996  0.28451058  0.06017107     0.12600
H802        H  0.93013594  0.36372115  0.51520618     0.11700
H803        H  0.90924350  0.29215078  0.84434102     0.11000
H804        H  0.89130920  0.22830854  0.88010549     0.16300
H805        H  0.88379297  0.22413790  0.01784358     0.12300
H806        H  0.94682251  0.41772565  0.02861097     0.15100
H807        H  0.95169171  0.42314251  0.55823919     0.14900
C808        C  0.88500155  0.63790497  0.90429325    -0.18000
C809        C  0.87179846  0.67825668  0.90031527    -0.20200
C810        C  0.88844036  0.70885293  0.92650115     0.20500
C811        C  0.91831851  0.69873210  0.95738125    -0.03100
C812        C  0.93102813  0.65785801  0.96196520    -0.06100
C813        C  0.91468506  0.62738727  0.93489012     0.20800
C814        C  0.96010553  0.64750077  0.65990629     0.18900
C815        C  0.97677762  0.67809522  0.68611858    -0.17600
C816        C  0.96467047  0.71872057  0.68114078    -0.19800
C817        C  0.93553199  0.72942546  0.98360629     0.20400
C818        C  0.92267487  0.77003501  0.97873701    -0.32900
C819        C  0.89218531  0.78000781  0.94871068     0.01100
C820        C  0.87545583  0.74932806  0.92255036    -0.24200
C821        C  0.92922224  0.58721872  0.93801800    -0.28800
C822        C  0.95947270  0.57704423  0.96825110     0.06800
C823        C  0.97304473  0.60696098  0.66373323    -0.27400
H824        H  0.87209067  0.61493043  0.88331089     0.11500
H825        H  0.84876291  0.68559450  0.87651104     0.12600
H826        H  0.99957985  0.67066265  0.71013486     0.11700
H827        H  0.97815292  0.74180172  0.70160407     0.11000
H828        H  0.93507034  0.79352550  0.66587849     0.16300
H829        H  0.85210035  0.75704242  0.89917769     0.12300
H830        H  0.91834980  0.56426248  0.91576854     0.15100
H831        H  0.99542107  0.59897598  0.68796711     0.14900
C832        C  0.32368357  0.02969655  0.69599819    -0.18000
C833        C  0.28230424  0.03869159  0.68718684    -0.20200
C834        C  0.27214485  0.06710109  0.98899253     0.20500
C835        C  0.30414748  0.08680228  0.96612416    -0.03100
C836        C  0.34587809  0.07733344  0.97460400    -0.06100
C837        C  0.35564828  0.04877640  0.67308647     0.20800
C838        C  0.37774517  0.09549635  0.95016724     0.18900
C839        C  0.36765711  0.12428988  0.91887499    -0.17600
C840        C  0.32638832  0.13451059  0.91129237    -0.19800
C841        C  0.29447374  0.11567191  0.93444750     0.20400
C842        C  0.25308671  0.12563883  0.92685470    -0.32900
C843        C  0.22107580  0.10696968  0.95022189     0.01100
C844        C  0.23068598  0.07695898  0.98048130    -0.24200
C845        C  0.39695068  0.03720932  0.67897305    -0.28800
C846        C  0.42798418  0.05116440  0.98428570     0.06800
C847        C  0.41873674  0.08235404  0.95527464    -0.27400
H848        H  0.33066910  0.00705750  0.72003171     0.11500
H849        H  0.25821462  0.02323584  0.70501232     0.12600
H850        H  0.39166521  0.13848620  0.89981016     0.11700
H851        H  0.31939372  0.15680723  0.88690904     0.11000
H852        H  0.24568459  0.14855108  0.90319904     0.16300
H853        H  0.20606875  0.06281991  0.99879155     0.12300
H854        H  0.40421002  0.01324702  0.70150776     0.15100
H855        H  0.44259874  0.09330370  0.93374248     0.14900
C856        C  0.28024394  0.97342843  0.90276348    -0.18000
C857        C  0.32089769  0.98791621  0.90360850    -0.20200
C858        C  0.35079076  0.96843535  0.92870737     0.20500
C859        C  0.33958072  0.93441553  0.95360702    -0.03100
C860        C  0.29889816  0.91940560  0.95216092    -0.06100
C861        C  0.26904489  0.93895369  0.92658948     0.20800
C862        C  0.28817920  0.88469780  0.97623741     0.18900
C863        C  0.31802503  0.86538128  0.66792132    -0.17600
C864        C  0.35808420  0.88082874  0.67008707    -0.19800
C865        C  0.36915360  0.91517437  0.64619952     0.20400
C866        C  0.40904592  0.93106935  0.64880170    -0.32900
C867        C  0.42014964  0.96525541  0.95837854     0.01100
C868        C  0.39150207  0.98278279  0.93014485    -0.24200
C869        C  0.22875410  0.92327406  0.92498304    -0.28800
C870        C  0.21848238  0.88798074  0.94797279     0.06800
C871        C  0.24814953  0.86918094  0.97382447    -0.27400
H872        H  0.25766200  0.98896137  0.88320791     0.11500
H873        H  0.32889473  0.01451338  0.88489839     0.12600
H874        H  0.31018932  0.83860866  0.68641800     0.11700
H875        H  0.38045015  0.86584787  0.69036578     0.11000
H876        H  0.43124203  0.91747596  0.67036539     0.16300
H877        H  0.40048715  0.00867109  0.91083067     0.12300
H878        H  0.20581094  0.93772516  0.90494195     0.15100
H879        H  0.24022222  0.84204166  0.65818831     0.14900
C880        C  0.65071753  0.92976428  0.87537665    -0.18000
C881        C  0.69115855  0.91512995  0.87259496    -0.20200
C882        C  0.71114933  0.90034778  0.90913763     0.20500
C883        C  0.68933091  0.89742795  0.94809927    -0.03100
C884        C  0.64816220  0.91115708  0.95065228    -0.06100
C885        C  0.62947307  0.92901715  0.91452745     0.20800
C886        C  0.62655677  0.90935478  0.65689234     0.18900
C887        C  0.64583967  0.89246961  0.69282178    -0.17600
C888        C  0.68691241  0.87930335  0.69037307    -0.19800
C889        C  0.70914232  0.88232673  0.98486876     0.20400
C890        C  0.75137068  0.87278346  0.98301063    -0.32900
C891        C  0.77435941  0.87912208  0.94517815     0.01100
C892        C  0.75307905  0.89018888  0.90768805    -0.24200
C893        C  0.59098798  0.94800126  0.91890421    -0.28800
C894        C  0.57091304  0.94851673  0.95865416     0.06800
C895        C  0.58724248  0.92697783  0.66016777    -0.27400
H896        H  0.63653155  0.94280394  0.84723920     0.11500
H897        H  0.70741150  0.91705826  0.84228593     0.12600
H898        H  0.62969162  0.89087916  0.72321196     0.11700
H899        H  0.70164272  0.86771185  0.71890516     0.11000
H900        H  0.76687245  0.86245070  0.67854406     0.16300
H901        H  0.76876535  0.89159747  0.87717863     0.12300
H902        H  0.57766998  0.96433420  0.89221167     0.15100
H903        H  0.57116535  0.92744932  0.69068275     0.14900
C904        C  0.68800018  0.01261742  0.68032461    -0.18000
C905        C  0.72903381  0.02426722  0.67316760    -0.20200
C906        C  0.73832877  0.05598191  0.97785674     0.20500
C907        C  0.70600819  0.07530777  0.95549459    -0.03100
C908        C  0.66472396  0.06283450  0.96197839    -0.06100
C909        C  0.65567512  0.03201356  0.65857597     0.20800
C910        C  0.63245651  0.08160619  0.93902519     0.18900
C911        C  0.64174778  0.11298995  0.91020411    -0.17600
C912        C  0.68255125  0.12606745  0.90458072    -0.19800
C913        C  0.71482861  0.10756213  0.92720511     0.20400
C914        C  0.75560688  0.12137859  0.92281828    -0.32900
C915        C  0.78775740  0.10314202  0.94603883     0.01100
C916        C  0.77909463  0.06969570  0.97251934    -0.24200
C917        C  0.61447221  0.02068841  0.66564407    -0.28800
C918        C  0.58253946  0.03675318  0.97372691     0.06800
C919        C  0.59163184  0.06805655  0.94463694    -0.27400
H920        H  0.68154712  0.98832160  0.70274683     0.11500
H921        H  0.75343962  0.00894935  0.69045079     0.12600
H922        H  0.61739928  0.12765481  0.89224283     0.11700
H923        H  0.68885199  0.15077016  0.88261645     0.11000
H924        H  0.76230280  0.14671049  0.90175532     0.16300
H925        H  0.80371158  0.05574706  0.65768725     0.12300
H926        H  0.60735505  0.99832585  0.68987934     0.15100
H927        H  0.56709757  0.08089765  0.92541194     0.14900
loop_ 
_geom_bond_atom_site_label_1 
_geom_bond_atom_site_label_2 
_geom_bond_distance 
_geom_bond_site_symmetry_2 
_ccdc_geom_bond_type 
C1            C6   1.411       .  A
C1          C620   1.419   1_545  A
C1          C918   1.490       .  S
C2            C3   1.391       .  A
C2          C310   1.419   1_565  A
C2          C276   1.471       .  S
C3            C4   1.395       .  A
C3            H8   1.085       .  S
C4          C314   1.419   1_565  A
C4          C249   1.480       .  S
C5            C6   1.408       .  A
C5          C622   1.419   1_545  A
C5          C846   1.488       .  S
C6            H7   1.084       .  S
C9           C10   1.538       .  S
C9           C15   1.526       .  S
C9           C13   1.538       .  S
C9          C273   1.526       .  S
C10          H17   1.086       .  S
C10          C11   1.367       .  D
C11          C12   1.538       .  S
C11          C41   1.471       .  S
C12          C16   1.545       .  S
C12          C14   1.541       .  S
C12          H18   1.111       .  S
C13          H19   1.083       .  S
C13          C14   1.363       .  D
C14          C21   1.475       .  S
C15          H20   1.087       .  S
C15          C16   1.365       .  D
C16         C201   1.481       .  S
C21          C58   1.461       .  S
C21          N39   1.348       .  A
N22          N39   1.320       .  A
N22          N44   1.319       .  A
N22         Co59   2.077       .  S
C23          C61   1.458       .  S
C23          H68   1.082       .  S
C23         N357   1.342       .  A
H24          C65   1.082       .  S
C25          C29   1.454       .  S
C25          H54   1.082       .  S
C25          N49   1.331       .  A
Co26         N44   2.091   1_455  S
Co26         N34   2.068       .  S
Co26         N66   2.095   1_455  S
Co26         N42   2.076       .  S
Co26        Cl70   2.435       .  S
N27          C65   1.345       .  A
N27          N34   1.321       .  A
N27         Co28   2.084       .  S
Co28         N31   2.096   1_565  S
Co28         N48   2.088       .  S
Co28         N35   2.102   1_565  S
Co28        Cl70   2.473       .  S
C29         C100   1.478       .  S
C29          N67   1.354       .  A
N30          N37   1.319       .  A
N30          N60   1.320       .  A
N30         Co63   2.069   1_655  S
N31          N49   1.319       .  A
N31          N67   1.331       .  A
N32          C61   1.346       .  A
N32         N351   1.321       .  A
H33          C58   1.082       .  S
N34          N55   1.316       .  A
N35          N53   1.319       .  A
N35         N658   1.332       .  A
C36          C64   1.453       .  S
C36         C103   1.478       .  S
C36          N40   1.356       .  A
N37          C52   1.343       .  A
N37         Co59   2.081   1_545  S
C38          C41   1.462       .  S
C38          H72   1.082       .  S
C38         N375   1.346       .  A
N40         N344   1.332       .  A
C41          N62   1.346       .  A
N42          N48   1.322       .  A
N42         N650   1.321       .  A
N43         C687   1.347       .  A
N43          N45   1.319       .  A
N43         Co59   2.091   1_545  S
N44          C58   1.347       .  A
N45         N691   1.318       .  A
N45         Co63   2.063   1_655  S
H46          C69   1.081       .  S
H47          C64   1.081       .  S
N48         C641   1.343       .  A
N49         Co63   2.068       .  S
N50          N66   1.320       .  A
N50         N680   1.321       .  A
N50         Co59   2.071       .  S
C51          C65   1.459       .  S
C51          C91   1.462       .  S
C51          N55   1.344       .  A
C52          C71   1.458       .  S
C52          H56   1.081       .  S
N53         C682   1.331       .  A
N53         Co63   2.068       .  S
C57          C69   1.463       .  S
C57          C76   1.468       .  S
C57          N73   1.343       .  A
Co59        Cl70   2.459   1_655  S
N60          C71   1.346       .  A
C61          C88   1.466       .  S
N62         N359   1.321       .  A
Co63        Cl70   2.423   1_545  S
C64         N362   1.331       .  A
N66         C656   1.346       .  A
C69         N352   1.347       .  A
C71          C79   1.466       .  S
N73         N354   1.318       .  A
C74          C75   1.537       .  S
C74          C80   1.532       .  S
C74          C78   1.536       .  S
C74         C177   1.528       .  S
C75          H82   1.086       .  S
C75          C76   1.364       .  D
C76          C77   1.533       .  S
C77          C81   1.541       .  S
C77          C79   1.537       .  S
C77          H83   1.111       .  S
C78          H84   1.085       .  S
C78          C79   1.365       .  D
C80          H85   1.086       .  S
C80          C81   1.369       .  D
C81         C297   1.483       .  S
C86          C87   1.537       .  S
C86          C92   1.530       .  S
C86          C90   1.537       .  S
C86         C156   1.525       .  S
C87          H94   1.086       .  S
C87          C88   1.367       .  D
C88          C89   1.535       .  S
C89          C93   1.537       .  S
C89          C91   1.528       .  S
C89          H95   1.111       .  S
C90          H96   1.079       .  S
C90          C91   1.359       .  D
C92          H97   1.086       .  S
C92          C93   1.368       .  D
C93         C252   1.474       .  S
C98          C99   1.533       .  S
C98         C104   1.523       .  S
C98         C102   1.535       .  S
C98         C132   1.529       .  S
C99         H106   1.084       .  S
C99         C100   1.366       .  D
C100        C101   1.546       .  S
C101        C105   1.551       .  S
C101        C103   1.540       .  S
C101        H107   1.111       .  S
C102        H108   1.085       .  S
C102        C103   1.365       .  D
C104        H109   1.086       .  S
C104        C105   1.368       .  D
C105        C225   1.482       .  S
C110        C111   1.420   1_455  A
C110        C115   1.395       .  A
C110        C771   1.471       .  S
C111        C112   1.407       .  A
C111        C822   1.491       .  S
C112        C113   1.403       .  A
C112        H117   1.084       .  S
C113        C114   1.410   1_655  A
C113        C798   1.474       .  S
C114        C115   1.394       .  A
C114        C747   1.471       .  S
C115        H116   1.085       .  S
C118        C119   1.398       .  A
C118        C741   1.404   1_554  A
C118        H134   1.084       .  S
C119        C120   1.403   1_554  A
C119        H135   1.084       .  S
C120        C130   1.401       .  A
C120        C739   1.413       .  A
C121        C127   1.412       .  A
C121        C122   1.410       .  A
C121        C429   1.413       .  A
C122        C124   1.410       .  A
C122        C123   1.409       .  A
C123        C131   1.401       .  A
C123        C427   1.404       .  A
C124        C133   1.402       .  A
C124        C125   1.404       .  A
C125        C126   1.398       .  A
C125        H136   1.084       .  S
C126        C127   1.402       .  A
C126        H137   1.084       .  S
C127        C128   1.400       .  A
C128        C129   1.401       .  A
C128        H138   1.085       .  S
C129        C439   1.401       .  A
C129        C423   1.471       .  S
C130        C747   1.401       .  A
C130        H139   1.084   1_556  S
C131        C132   1.411       .  A
C131        H140   1.084       .  S
C132        C133   1.411       .  A
C133        H141   1.081       .  S
C142        C143   1.393       .  A
C142        C147   1.403       .  A
C142        H158   1.084       .  S
C143        C144   1.400       .  A
C143        H159   1.084       .  S
C144        C154   1.393       .  A
C144        C145   1.412       .  A
C145        C146   1.407       .  A
C145        C460   1.412       .  A
C146        C148   1.410       .  A
C146        C147   1.407       .  A
C147        C155   1.393       .  A
C148        C157   1.404       .  A
C148        C458   1.404       .  A
C149        C150   1.401       .  A
C149        C766   1.404   1_554  A
C149        H160   1.084       .  S
C150        C151   1.404   1_554  A
C150        H161   1.083       .  S
C151        C152   1.403       .  A
C151        C763   1.412       .  A
C152        C771   1.404       .  A
C152        H162   1.084   1_556  S
C153        C154   1.399       .  A
C153        C461   1.403       .  A
C153        C419   1.470       .  S
C154        H163   1.085       .  S
C155        C156   1.411       .  A
C155        H164   1.075       .  S
C156        C157   1.410       .  A
C157        H474   1.084       .  S
H165        C775   1.084   1_554  S
C166        C167   1.398       .  A
C166        C171   1.402       .  A
C166        H182   1.084       .  S
C167        C168   1.404       .  A
C167        H183   1.084       .  S
C168        C178   1.400       .  A
C168        C169   1.409       .  A
C169        C175   1.411       .  A
C169        C170   1.411       .  A
C170        C172   1.412       .  A
C170        C171   1.413       .  A
C171        C179   1.401       .  A
C172        C173   1.404       .  A
C172        C490   1.403       .  A
C173        C174   1.400       .  A
C173        H493   1.084       .  S
C174        C175   1.404       .  A
C174        H185   1.084       .  S
C175        C176   1.404       .  A
C176        C177   1.411       .  A
C176        H186   1.082       .  S
C177        C178   1.411       .  A
C178        H187   1.083       .  S
C179        C180   1.401       .  A
C179        H188   1.084       .  S
C180        C490   1.404       .  A
C180        C422   1.474       .  S
C181        C790   1.403       .  A
C181        C798   1.404       .  A
C181        H189   1.084       .  S
H184        C791   1.084       .  S
C190        C191   1.399       .  A
C190        C195   1.403       .  A
C190        H206   1.084       .  S
C191        C192   1.403       .  A
C191        H207   1.084       .  S
C192        C202   1.400       .  A
C192        C193   1.410       .  A
C193        C199   1.414       .  A
C193        C194   1.412       .  A
C194        C195   1.413       .  A
C194        C505   1.409       .  A
C195        C203   1.405       .  A
C196        C205   1.402       .  A
C196        C197   1.404   1_556  A
C196        C812   1.409       .  A
C197        C198   1.400       .  A
C197        H208   1.084       .  S
C198        C817   1.404   1_554  A
C198        H209   1.084       .  S
C199        C200   1.406       .  A
C199        C507   1.404       .  A
C200        C201   1.404       .  A
C200        H519   1.084       .  S
C201        C202   1.406       .  A
C202        H211   1.084       .  S
C203        C204   1.405       .  A
C203        H212   1.084       .  S
C204        C514   1.408       .  A
C204        C420   1.491       .  S
C205        C822   1.409       .  A
C205        H213   1.083   1_556  S
H210        C818   1.084       .  S
C214        C215   1.400       .  A
C214        C219   1.404       .  A
C214        H230   1.083       .  S
C215        C834   1.403   1_554  A
C215        H231   1.084       .  S
C216        C226   1.407       .  A
C216        C217   1.414       .  A
C216        C524   1.403       .  A
C217        C223   1.410       .  A
C217        C218   1.412       .  A
C218        C220   1.414       .  A
C218        C528   1.410       .  A
C219        C227   1.403       .  A
C219        C836   1.410   1_554  A
C220        C229   1.405       .  A
C220        C221   1.403       .  A
C221        C222   1.399       .  A
C221        H232   1.084       .  S
C222        C223   1.404       .  A
C222        H233   1.083       .  S
C223        C224   1.400       .  A
C224        C225   1.407       .  A
C224        H234   1.084       .  S
C225        C226   1.404       .  A
C226        H235   1.084       .  S
C227        C846   1.409   1_554  A
C227        H236   1.084       .  S
C228        C229   1.404       .  A
C228        C536   1.409       .  A
C228        C314   1.487       .  S
C229        H237   1.084       .  S
C238        C239   1.400       .  A
C238        C243   1.404       .  A
C238        H254   1.084       .  S
C239        C240   1.404       .  A
C239        H255   1.084   1_565  S
C240        C250   1.400       .  A
C240        C241   1.411       .  A
C241        C242   1.407       .  A
C241        C556   1.412       .  A
C242        C244   1.411       .  A
C242        C243   1.412       .  A
C243        C251   1.403       .  A
C244        C253   1.395       .  A
C244        C554   1.402       .  A
C245        C246   1.394       .  A
C245        C862   1.402   1_554  A
C245        H256   1.084       .  S
C246        C247   1.401   1_554  A
C246        H257   1.084       .  S
C247        C248   1.395       .  A
C247        C859   1.412       .  A
C248        C867   1.400       .  A
C248        H258   1.085   1_556  S
C249        C250   1.407       .  A
C249        C557   1.401       .  A
C250        H259   1.084   1_565  S
C251        C252   1.405       .  A
C251        H260   1.084       .  S
C252        C253   1.402       .  A
C253        H570   1.084       .  S
H261        C871   1.084       .  S
C262        C263   1.396       .  A
C262        C267   1.401       .  A
C262        H278   1.084       .  S
C263        C264   1.404       .  A
C263        H279   1.084       .  S
C264        C274   1.398       .  A
C264        C265   1.409       .  A
C265        C271   1.410       .  A
C265        C266   1.408       .  A
C266        C267   1.413       .  A
C266        C577   1.411       .  A
C267        C275   1.399       .  A
C268        C277   1.401       .  A
C268        C269   1.403   1_556  A
C268        C884   1.411       .  A
C269        C270   1.399       .  A
C269        H280   1.084       .  S
C270        C889   1.404   1_554  A
C270        H281   1.084       .  S
C271        C272   1.403       .  A
C271        C579   1.404       .  A
C272        C273   1.410       .  A
C272        H591   1.084       .  S
C273        C274   1.411       .  A
C274        H283   1.080       .  S
C275        C276   1.400       .  A
C275        H284   1.084       .  S
C276        C586   1.403       .  A
C277        C894   1.403       .  A
C277        H285   1.085   1_556  S
H282        C890   1.084   1_554  S
C286        C287   1.399       .  A
C286        C291   1.404   1_554  A
C286        H302   1.084   1_545  S
C287        C906   1.404   1_554  A
C287        H303   1.084       .  S
C288        C298   1.404       .  A
C288        C289   1.413       .  A
C288        C596   1.404       .  A
C289        C295   1.411       .  A
C289        C290   1.412       .  A
C290        C292   1.413       .  A
C290        C600   1.409       .  A
C291        C299   1.401       .  A
C291        C908   1.410       .  A
C292        C301   1.405       .  A
C292        C293   1.403       .  A
C293        C294   1.399       .  A
C293        H304   1.083       .  S
C294        C295   1.404       .  A
C294        H305   1.083       .  S
C295        C296   1.402       .  A
C296        C297   1.406       .  A
C296        H306   1.084       .  S
C297        C298   1.405       .  A
C298        H616   1.084       .  S
C299        C918   1.407       .  A
C299        H308   1.081   1_546  S
C300        C301   1.405       .  A
C300        C608   1.407       .  A
C300        C310   1.491       .  S
C301        H309   1.084       .  S
H307        C916   1.084       .  S
C310        C315   1.411       .  A
C311        C619   1.419   1_565  A
C311        C312   1.391       .  A
C311        C585   1.471       .  S
C312        C313   1.395       .  A
C312        H317   1.085       .  S
C313        C623   1.419   1_565  A
C313        C558   1.480       .  S
C314        C315   1.408       .  A
C315        H316   1.084       .  S
C318        C319   1.538       .  S
C318        C324   1.526       .  S
C318        C322   1.538       .  S
C318        C582   1.526       .  S
C319        H326   1.086       .  S
C319        C320   1.367       .  D
C320        C321   1.538       .  S
C320        C350   1.471       .  S
C321        C325   1.544       .  S
C321        C323   1.541       .  S
C321        H327   1.111       .  S
C322        H328   1.083       .  S
C322        C323   1.363       .  D
C323        C330   1.475       .  S
C324        H329   1.087       .  S
C324        C325   1.365       .  D
C325        C510   1.481       .  S
C330        C367   1.461       .  S
C330        N348   1.348       .  A
N331        N348   1.320       .  A
N331        N353   1.319       .  A
N331       Co368   2.076       .  S
C332        C370   1.458       .  S
C332        H377   1.082       .  S
C332        N666   1.342       .  A
H333        C374   1.082       .  S
C334        C338   1.455       .  S
C334        H363   1.082       .  S
C334        N358   1.331       .  A
Co335       N353   2.092   1_455  S
Co335       N343   2.068       .  S
Co335       N375   2.095   1_455  S
Co335       N351   2.076       .  S
Co335      Cl379   2.434       .  S
N336        C374   1.345       .  A
N336        N343   1.321       .  A
N336       Co337   2.084       .  S
Co337       N340   2.095   1_565  S
Co337       N357   2.087       .  S
Co337       N344   2.102   1_565  S
Co337      Cl379   2.473       .  S
C338        C409   1.478       .  S
C338        N376   1.354       .  A
N339        N346   1.319       .  A
N339        N369   1.320       .  A
N339       Co372   2.068   1_655  S
N340        N358   1.319       .  A
N340        N376   1.331       .  A
N341        C370   1.346       .  A
N341        N660   1.321       .  A
H342        C367   1.082       .  S
N343        N364   1.316       .  A
N344        N362   1.319       .  A
C345        C373   1.453       .  S
C345        C412   1.478       .  S
C345        N349   1.356       .  A
N346        C361   1.343       .  A
N346       Co368   2.081   1_545  S
C347        C350   1.462       .  S
C347        H381   1.082       .  S
C347        N684   1.346       .  A
N349        N653   1.332       .  A
C350        N371   1.346       .  A
N351        N357   1.322       .  A
N352        N354   1.319       .  A
N352       Co368   2.091   1_545  S
N353        C367   1.347       .  A
N354       Co372   2.063   1_655  S
H355        C378   1.081       .  S
H356        C373   1.081       .  S
N358       Co372   2.069       .  S
N359        N375   1.320       .  A
N359       Co368   2.071       .  S
C360        C374   1.459       .  S
C360        C400   1.462       .  S
C360        N364   1.344       .  A
C361        C380   1.458       .  S
C361        H365   1.082       .  S
N362       Co372   2.068       .  S
C366        C378   1.463       .  S
C366        C385   1.468       .  S
C366        N382   1.343       .  A
Co368      Cl379   2.459   1_655  S
N369        C380   1.346       .  A
C370        C397   1.466       .  S
N371        N668   1.321       .  A
Co372      Cl379   2.422   1_545  S
C373        N671   1.331       .  A
C378        N661   1.347       .  A
C380        C388   1.466       .  S
N382        N663   1.318       .  A
C383        C384   1.538       .  S
C383        C389   1.532       .  S
C383        C387   1.536       .  S
C383        C486   1.528       .  S
C384        H391   1.086       .  S
C384        C385   1.364       .  D
C385        C386   1.533       .  S
C386        C390   1.541       .  S
C386        C388   1.537       .  S
C386        H392   1.111       .  S
C387        H393   1.085       .  S
C387        C388   1.365       .  D
C389        H394   1.086       .  S
C389        C390   1.369       .  D
C390        C606   1.482       .  S
C395        C396   1.537       .  S
C395        C401   1.529       .  S
C395        C399   1.537       .  S
C395        C465   1.525       .  S
C396        H403   1.086       .  S
C396        C397   1.367       .  D
C397        C398   1.535       .  S
C398        C402   1.537       .  S
C398        C400   1.528       .  S
C398        H404   1.111       .  S
C399        H405   1.079       .  S
C399        C400   1.359       .  D
C401        H406   1.086       .  S
C401        C402   1.368       .  D
C402        C561   1.474       .  S
C407        C408   1.533       .  S
C407        C413   1.523       .  S
C407        C411   1.535       .  S
C407        C441   1.529       .  S
C408        H415   1.084       .  S
C408        C409   1.366       .  D
C409        C410   1.546       .  S
C410        C414   1.551       .  S
C410        C412   1.540       .  S
C410        H416   1.111       .  S
C411        H417   1.085       .  S
C411        C412   1.365       .  D
C413        H418   1.086       .  S
C413        C414   1.368       .  D
C414        C534   1.482       .  S
C419        C420   1.420   1_455  A
C419        C424   1.395       .  A
C420        C421   1.406       .  A
C421        C422   1.403       .  A
C421        H426   1.084       .  S
C422        C423   1.410   1_655  A
C423        C424   1.394       .  A
C424        H425   1.085       .  S
C427        C428   1.398       .  A
C427        H443   1.084       .  S
C428        C429   1.403       .  A
C428        H444   1.084       .  S
C429        C439   1.401       .  A
C430        C738   1.413       .  A
C430        C436   1.412       .  A
C430        C431   1.410       .  A
C431        C433   1.410       .  A
C431        C432   1.410       .  A
C432        C736   1.404       .  A
C432        C440   1.401       .  A
C433        C442   1.402       .  A
C433        C434   1.404       .  A
C434        C435   1.398       .  A
C434        H445   1.084       .  S
C435        C436   1.402       .  A
C435        H446   1.084       .  S
C436        C437   1.400       .  A
C437        C438   1.401       .  A
C437        H447   1.085       .  S
C438        C748   1.401       .  A
C438        C732   1.471       .  S
C439        H448   1.084       .  S
C440        C441   1.411       .  A
C440        H449   1.084       .  S
C441        C442   1.411       .  A
C442        H450   1.081       .  S
C451        C452   1.393       .  A
C451        C456   1.403       .  A
C451        H467   1.083       .  S
C452        C453   1.400       .  A
C452        H468   1.084       .  S
C453        C463   1.393       .  A
C453        C454   1.412       .  A
C454        C769   1.412       .  A
C454        C455   1.407       .  A
C455        C457   1.410       .  A
C455        C456   1.407       .  A
C456        C464   1.393       .  A
C457        C466   1.404       .  A
C457        C767   1.404       .  A
C458        C459   1.401       .  A
C458        H469   1.084       .  S
C459        C460   1.404       .  A
C459        H470   1.083       .  S
C460        C461   1.403       .  A
C461        H471   1.084       .  S
C462        C770   1.403       .  A
C462        C463   1.399       .  A
C462        C728   1.470       .  S
C463        H472   1.085       .  S
C464        C465   1.411       .  A
C464        H473   1.075       .  S
C465        C466   1.410       .  A
C466        H783   1.084       .  S
C475        C476   1.398       .  A
C475        C480   1.402       .  A
C475        H491   1.084       .  S
C476        C477   1.404       .  A
C476        H492   1.084       .  S
C477        C487   1.400       .  A
C477        C478   1.409       .  A
C478        C484   1.411       .  A
C478        C479   1.411       .  A
C479        C481   1.412       .  A
C479        C480   1.413       .  A
C480        C488   1.401       .  A
C481        C799   1.403       .  A
C481        C482   1.404       .  A
C482        C483   1.400       .  A
C482        H802   1.084       .  S
C483        C484   1.404       .  A
C483        H494   1.084       .  S
C484        C485   1.404       .  A
C485        C486   1.411       .  A
C485        H495   1.082       .  S
C486        C487   1.411       .  A
C487        H496   1.083       .  S
C488        C489   1.401       .  A
C488        H497   1.084       .  S
C489        C799   1.404       .  A
C489        C731   1.474       .  S
C490        H498   1.084       .  S
C499        C500   1.399       .  A
C499        C504   1.403       .  A
C499        H515   1.084       .  S
C500        C501   1.403       .  A
C500        H516   1.084       .  S
C501        C511   1.400       .  A
C501        C502   1.410       .  A
C502        C508   1.414       .  A
C502        C503   1.412       .  A
C503        C814   1.409       .  A
C503        C504   1.413       .  A
C504        C512   1.405       .  A
C505        C514   1.401       .  A
C505        C506   1.404       .  A
C506        C507   1.400       .  A
C506        H517   1.084       .  S
C507        H518   1.084       .  S
C508        C816   1.404       .  A
C508        C509   1.406       .  A
C509        C510   1.404       .  A
C509        H828   1.084       .  S
C510        C511   1.406       .  A
C511        H520   1.084       .  S
C512        C513   1.405       .  A
C512        H521   1.084       .  S
C513        C823   1.408       .  A
C513        C729   1.491       .  S
C514        H522   1.083       .  S
C523        C524   1.400       .  A
C523        C528   1.404       .  A
C523        H539   1.083       .  S
C524        H540   1.084       .  S
C525        C833   1.403       .  A
C525        C535   1.407       .  A
C525        C526   1.414       .  A
C526        C532   1.410       .  A
C526        C527   1.412       .  A
C527        C529   1.414       .  A
C527        C837   1.410       .  A
C528        C536   1.402       .  A
C529        C538   1.405       .  A
C529        C530   1.403       .  A
C530        C531   1.399       .  A
C530        H541   1.084       .  S
C531        C532   1.404       .  A
C531        H542   1.083       .  S
C532        C533   1.400       .  A
C533        C534   1.407       .  A
C533        H543   1.084       .  S
C534        C535   1.404       .  A
C535        H544   1.084       .  S
C536        H545   1.084       .  S
C537        C845   1.409       .  A
C537        C538   1.404       .  A
C537        C623   1.488       .  S
C538        H546   1.084       .  S
C547        C548   1.400       .  A
C547        C552   1.404       .  A
C547        H563   1.084       .  S
C548        C549   1.404       .  A
C548        H564   1.084   1_565  S
C549        C559   1.400       .  A
C549        C550   1.411       .  A
C550        C865   1.412       .  A
C550        C551   1.407       .  A
C551        C553   1.411       .  A
C551        C552   1.412       .  A
C552        C560   1.403       .  A
C553        C562   1.395       .  A
C553        C863   1.402       .  A
C554        C555   1.394       .  A
C554        H565   1.084       .  S
C555        C556   1.401       .  A
C555        H566   1.084       .  S
C556        C557   1.395       .  A
C557        H567   1.085       .  S
C558        C866   1.401       .  A
C558        C559   1.408       .  A
C559        H568   1.084   1_565  S
C560        C561   1.405       .  A
C560        H569   1.084       .  S
C561        C562   1.402       .  A
C562        H879   1.084       .  S
C571        C572   1.396       .  A
C571        C576   1.401       .  A
C571        H587   1.084       .  S
C572        C573   1.404       .  A
C572        H588   1.084       .  S
C573        C583   1.398       .  A
C573        C574   1.409       .  A
C574        C580   1.410       .  A
C574        C575   1.408       .  A
C575        C886   1.411       .  A
C575        C576   1.413       .  A
C576        C584   1.399       .  A
C577        C586   1.401       .  A
C577        C578   1.403       .  A
C578        C579   1.399       .  A
C578        H589   1.084       .  S
C579        H590   1.084       .  S
C580        C888   1.404       .  A
C580        C581   1.403       .  A
C581        C582   1.410       .  A
C581        H900   1.084       .  S
C582        C583   1.411       .  A
C583        H592   1.080       .  S
C584        C585   1.400       .  A
C584        H593   1.084       .  S
C585        C895   1.403       .  A
C586        H594   1.085       .  S
C595        C596   1.399       .  A
C595        C600   1.404       .  A
C595        H611   1.084   1_545  S
C596        H612   1.084       .  S
C597        C905   1.404       .  A
C597        C607   1.404       .  A
C597        C598   1.413       .  A
C598        C604   1.411       .  A
C598        C599   1.412       .  A
C599        C601   1.413       .  A
C599        C909   1.410       .  A
C600        C608   1.401       .  A
C601        C610   1.405       .  A
C601        C602   1.403       .  A
C602        C603   1.399       .  A
C602        H613   1.083       .  S
C603        C604   1.404       .  A
C603        H614   1.083       .  S
C604        C605   1.402       .  A
C605        C606   1.406       .  A
C605        H615   1.084       .  S
C606        C607   1.405       .  A
C607        H925   1.084       .  S
C608        H617   1.081   1_545  S
C609        C917   1.407       .  A
C609        C610   1.405       .  A
C609        C619   1.490       .  S
C610        H618   1.084       .  S
C619        C624   1.411       .  A
C620        C621   1.391       .  A
C620        C894   1.471       .  S
C621        C622   1.395       .  A
C621        H626   1.085       .  S
C622        C867   1.479       .  S
C623        C624   1.408       .  A
C624        H625   1.084       .  S
C627        C628   1.538       .  S
C627        C633   1.526       .  S
C627        C631   1.538       .  S
C627        C891   1.526       .  S
C628        H635   1.086   1_556  S
C628        C629   1.368       .  D
C629        C630   1.538       .  S
C629        C659   1.471   1_556  S
C630        C634   1.544       .  S
C630        C632   1.541       .  S
C630        H636   1.111       .  S
C631        H637   1.083       .  S
C631        C632   1.363       .  D
C632        C639   1.475       .  S
C633        H638   1.087       .  S
C633        C634   1.365       .  D
C634        C819   1.481       .  S
C639        C676   1.461       .  S
C639        N657   1.348       .  A
N640        N657   1.320       .  A
N640        N662   1.319       .  A
N640       Co677   2.076       .  S
C641        C679   1.459       .  S
C641        H686   1.082       .  S
H642        C683   1.082       .  S
C643        C647   1.455       .  S
C643        H672   1.082       .  S
C643        N667   1.331       .  A
Co644       N662   2.091   1_455  S
Co644       N652   2.068       .  S
Co644       N684   2.095   1_455  S
Co644       N660   2.076       .  S
Co644      Cl688   2.435       .  S
N645        C683   1.345       .  A
N645        N652   1.321       .  A
N645       Co646   2.084       .  S
Co646       N649   2.095   1_565  S
Co646       N666   2.087       .  S
Co646       N653   2.102   1_565  S
Co646      Cl688   2.473       .  S
C647        C718   1.478       .  S
C647        N685   1.354       .  A
N648        N655   1.319       .  A
N648        N678   1.320       .  A
N648       Co681   2.068   1_655  S
N649        N667   1.319       .  A
N649        N685   1.331       .  A
N650        C679   1.346       .  A
H651        C676   1.082       .  S
N652        N673   1.316       .  A
N653        N671   1.319       .  A
C654        C682   1.453       .  S
C654        C721   1.478   1_554  S
C654        N658   1.356       .  A
N655        C670   1.343       .  A
N655       Co677   2.081   1_545  S
C656        C659   1.462       .  S
C656        H690   1.082       .  S
C659        N680   1.346       .  A
N660        N666   1.322       .  A
N661        N663   1.319       .  A
N661       Co677   2.091   1_545  S
N662        C676   1.347       .  A
N663       Co681   2.063   1_655  S
H664        C687   1.081       .  S
H665        C682   1.081       .  S
N667       Co681   2.069       .  S
N668        N684   1.320       .  A
N668       Co677   2.071       .  S
C669        C683   1.459       .  S
C669        C709   1.462       .  S
C669        N673   1.344       .  A
C670        C689   1.458       .  S
C670        H674   1.081       .  S
N671       Co681   2.068       .  S
C675        C687   1.463       .  S
C675        C694   1.468   1_554  S
C675        N691   1.343       .  A
Co677      Cl688   2.459   1_655  S
N678        C689   1.346       .  A
C679        C706   1.466   1_554  S
Co681      Cl688   2.422   1_545  S
C689        C697   1.466       .  S
C692        C693   1.538       .  S
C692        C698   1.532       .  S
C692        C696   1.536       .  S
C692        C795   1.529       .  S
C693        H700   1.086   1_556  S
C693        C694   1.364       .  D
C694        C695   1.533       .  S
C695        C699   1.541       .  S
C695        C697   1.537       .  S
C695        H701   1.111       .  S
C696        H702   1.085       .  S
C696        C697   1.365       .  D
C698        H703   1.086       .  S
C698        C699   1.369       .  D
C699        C915   1.483       .  S
C704        C705   1.537       .  S
C704        C710   1.529       .  S
C704        C708   1.537       .  S
C704        C774   1.526       .  S
C705        H712   1.086   1_556  S
C705        C706   1.367       .  D
C706        C707   1.535       .  S
C707        C711   1.537       .  S
C707        C709   1.528       .  S
C707        H713   1.111       .  S
C708        H714   1.080       .  S
C708        C709   1.359       .  D
C710        H715   1.086       .  S
C710        C711   1.368       .  D
C711        C870   1.474       .  S
C716        C717   1.533       .  S
C716        C722   1.523       .  S
C716        C720   1.535       .  S
C716        C750   1.529       .  S
C717        H724   1.084       .  S
C717        C718   1.366       .  D
C718        C719   1.546       .  S
C719        C723   1.551       .  S
C719        C721   1.540       .  S
C719        H725   1.111       .  S
C720        H726   1.085   1_556  S
C720        C721   1.365       .  D
C722        H727   1.086       .  S
C722        C723   1.368       .  D
C723        C843   1.482       .  S
C728        C729   1.420   1_455  A
C728        C733   1.395       .  A
C729        C730   1.406       .  A
C730        C731   1.403       .  A
C730        H735   1.084       .  S
C731        C732   1.410   1_655  A
C732        C733   1.394       .  A
C733        H734   1.085       .  S
C736        C737   1.398       .  A
C736        H752   1.084       .  S
C737        C738   1.403       .  A
C737        H753   1.084       .  S
C738        C748   1.401       .  A
C739        C745   1.412       .  A
C739        C740   1.410       .  A
C740        C742   1.410       .  A
C740        C741   1.409       .  A
C741        C749   1.400       .  A
C742        C751   1.402       .  A
C742        C743   1.404       .  A
C743        C744   1.398       .  A
C743        H754   1.084       .  S
C744        C745   1.402       .  A
C744        H755   1.084       .  S
C745        C746   1.400       .  A
C746        C747   1.401       .  A
C746        H756   1.085       .  S
C748        H757   1.084       .  S
C749        C750   1.411       .  A
C749        H758   1.084   1_556  S
C750        C751   1.411       .  A
C751        H759   1.081       .  S
C760        C761   1.393       .  A
C760        C765   1.403       .  A
C760        H776   1.083       .  S
C761        C762   1.400       .  A
C761        H777   1.084       .  S
C762        C772   1.393       .  A
C762        C763   1.412       .  A
C763        C764   1.407       .  A
C764        C766   1.410       .  A
C764        C765   1.407       .  A
C765        C773   1.393       .  A
C766        C775   1.404       .  A
C767        C768   1.401       .  A
C767        H778   1.084       .  S
C768        C769   1.404       .  A
C768        H779   1.083       .  S
C769        C770   1.403       .  A
C770        H780   1.084       .  S
C771        C772   1.399       .  A
C772        H781   1.085       .  S
C773        C774   1.411       .  A
C773        H782   1.075       .  S
C774        C775   1.410       .  A
C784        C785   1.398       .  A
C784        C789   1.402   1_554  A
C784        H800   1.084       .  S
C785        C786   1.404   1_554  A
C785        H801   1.084       .  S
C786        C796   1.400       .  A
C786        C787   1.409       .  A
C787        C793   1.411       .  A
C787        C788   1.411       .  A
C788        C790   1.412       .  A
C788        C789   1.413       .  A
C789        C797   1.401       .  A
C790        C791   1.404       .  A
C791        C792   1.400       .  A
C792        C793   1.404       .  A
C792        H803   1.084       .  S
C793        C794   1.404       .  A
C794        C795   1.412       .  A
C794        H804   1.082       .  S
C795        C796   1.411       .  A
C796        H805   1.083   1_556  S
C797        C798   1.401       .  A
C797        H806   1.084   1_556  S
C799        H807   1.084       .  S
C808        C809   1.399       .  A
C808        C813   1.403       .  A
C808        H824   1.084       .  S
C809        C810   1.403       .  A
C809        H825   1.084       .  S
C810        C820   1.400       .  A
C810        C811   1.410       .  A
C811        C817   1.414       .  A
C811        C812   1.412       .  A
C812        C813   1.413       .  A
C813        C821   1.404       .  A
C814        C823   1.401       .  A
C814        C815   1.404       .  A
C815        C816   1.400       .  A
C815        H826   1.084       .  S
C816        H827   1.084       .  S
C817        C818   1.406       .  A
C818        C819   1.405       .  A
C819        C820   1.406       .  A
C820        H829   1.084       .  S
C821        C822   1.405       .  A
C821        H830   1.084       .  S
C823        H831   1.083       .  S
C832        C833   1.400       .  A
C832        C837   1.404       .  A
C832        H848   1.083       .  S
C833        H849   1.084       .  S
C834        C844   1.407       .  A
C834        C835   1.414       .  A
C835        C841   1.410       .  A
C835        C836   1.412       .  A
C836        C838   1.414       .  A
C837        C845   1.403       .  A
C838        C847   1.405       .  A
C838        C839   1.402       .  A
C839        C840   1.399       .  A
C839        H850   1.084       .  S
C840        C841   1.404       .  A
C840        H851   1.083       .  S
C841        C842   1.400       .  A
C842        C843   1.407       .  A
C842        H852   1.084       .  S
C843        C844   1.404       .  A
C844        H853   1.084       .  S
C845        H854   1.084       .  S
C846        C847   1.404       .  A
C847        H855   1.084       .  S
C856        C857   1.400       .  A
C856        C861   1.404       .  A
C856        H872   1.084       .  S
C857        C858   1.404       .  A
C857        H873   1.084   1_565  S
C858        C868   1.400       .  A
C858        C859   1.411       .  A
C859        C860   1.407       .  A
C860        C862   1.411       .  A
C860        C861   1.412       .  A
C861        C869   1.403       .  A
C862        C871   1.395       .  A
C863        C864   1.394       .  A
C863        H874   1.084       .  S
C864        C865   1.401       .  A
C864        H875   1.084       .  S
C865        C866   1.395       .  A
C866        H876   1.085       .  S
C867        C868   1.407       .  A
C868        H877   1.084   1_565  S
C869        C870   1.405       .  A
C869        H878   1.084       .  S
C870        C871   1.402       .  A
C880        C881   1.396       .  A
C880        C885   1.401       .  A
C880        H896   1.084       .  S
C881        C882   1.404       .  A
C881        H897   1.084       .  S
C882        C892   1.398       .  A
C882        C883   1.409       .  A
C883        C889   1.410       .  A
C883        C884   1.408       .  A
C884        C885   1.413       .  A
C885        C893   1.399       .  A
C886        C895   1.401       .  A
C886        C887   1.403       .  A
C887        C888   1.399       .  A
C887        H898   1.084       .  S
C888        H899   1.084       .  S
C889        C890   1.403       .  A
C890        C891   1.410       .  A
C891        C892   1.411       .  A
C892        H901   1.079       .  S
C893        C894   1.400       .  A
C893        H902   1.085       .  S
C895        H903   1.085       .  S
C904        C905   1.399       .  A
C904        C909   1.404       .  A
C904        H920   1.084   1_545  S
C905        H921   1.084       .  S
C906        C916   1.404       .  A
C906        C907   1.413       .  A
C907        C913   1.411       .  A
C907        C908   1.412       .  A
C908        C910   1.412       .  A
C909        C917   1.401       .  A
C910        C919   1.405       .  A
C910        C911   1.403       .  A
C911        C912   1.399       .  A
C911        H922   1.083       .  S
C912        C913   1.404       .  A
C912        H923   1.083       .  S
C913        C914   1.402       .  A
C914        C915   1.406       .  A
C914        H924   1.084       .  S
C915        C916   1.405       .  A
C917        H926   1.081   1_545  S
C918        C919   1.405       .  A
C919        H927   1.084       .  S
