geometry optimzed in LAMMPS
_audit_creation_date              2020-11-30 
_audit_creation_method            'lammps2cif' 
_symmetry_space_group_name_H-M    'P1' 
_symmetry_Int_Tables_number       1 
_symmetry_cell_setting            triclinic 
loop_ 
_symmetry_equiv_pos_as_xyz 
  x,y,z 
_cell_length_a                    59.37905133208525 
_cell_length_b                    58.870705330742794 
_cell_length_c                    20.10894552625742 
_cell_angle_alpha                 88.94282114217395 
_cell_angle_beta                  91.30342086755537 
_cell_angle_gamma                 121.80514688273924 
loop_ 
_atom_site_label 
_atom_site_type_symbol 
_atom_site_fract_x 
_atom_site_fract_y 
_atom_site_fract_z 
_atom_site_charge 
In1        In  0.24571754  0.07945971  0.40633239     1.36870
C2          C  0.28130222  0.07377569  0.47349425     0.77560
O3          O  0.26064347  0.11649331  0.46365609    -0.60880
O4          O  0.22007075  0.09636331  0.43527927    -0.51790
C5          C  0.27170632  0.10822426  0.30090954     0.70230
O6          O  0.28167278  0.10151701  0.34699129    -0.46650
C7          C  0.20883717  0.02781368  0.40065250     0.74930
O8          O  0.27634366  0.06831991  0.41259911    -0.58510
O9          O  0.21446084  0.04119743  0.45317801    -0.48600
O10         O  0.26685238  0.08049369  0.50133189    -0.54940
C11         C  0.23940715  0.11626299  0.46396398     0.85110
O12         O  0.24690787  0.09795442  0.30425926    -0.56830
O13         O  0.21915736  0.04150123  0.34877498    -0.60130
In14       In  0.24261386  0.17977014  0.55768181     1.36870
C15         C  0.28349624  0.22227103  0.49957529     0.77560
O16         O  0.26029218  0.15911714  0.51165743    -0.60880
O17         O  0.21821659  0.13837302  0.50957741    -0.51790
C18         C  0.25830159  0.17023261  0.67268287     0.70230
O19         O  0.26718253  0.19351847  0.65026128    -0.46650
C20         C  0.20629590  0.19331842  0.56064955     0.74930
O21         O  0.28049686  0.22030667  0.56159120    -0.58510
O22         O  0.21304882  0.18767010  0.50761705    -0.48600
O23         O  0.26518596  0.20305404  0.46712001    -0.54940
C24         C  0.23885838  0.13830928  0.49532912     0.85110
O25         O  0.23858773  0.15186957  0.64130116    -0.56830
O26         O  0.21535345  0.18863765  0.61272952    -0.60130
In27       In  0.34694520  0.08002802  0.56593889     1.36870
C28         C  0.30354883  0.07433622  0.50756855     0.77560
O29         O  0.36542000  0.11740324  0.50498492    -0.60880
O30         O  0.38891871  0.10068725  0.52670939    -0.51790
C31         C  0.35277351  0.10199545  0.68406155     0.70230
O32         O  0.33071849  0.08334498  0.66216383    -0.46650
C33         C  0.33762289  0.03059721  0.56861470     0.74930
O34         O  0.31020984  0.08218136  0.56643238    -0.58510
O35         O  0.34343333  0.04448454  0.51646225    -0.48600
O36         O  0.31857330  0.06866075  0.47897853    -0.54980
C37         C  0.38729311  0.11912575  0.49840428     0.85110
O38         O  0.37231226  0.10719535  0.64873460    -0.56830
O39         O  0.33953117  0.04289788  0.62098304    -0.60130
In40       In  0.44887542  0.18596406  0.40858670     1.36870
C41         C  0.45302680  0.22588659  0.47855597     0.77560
O42         O  0.40765908  0.16160862  0.44551206    -0.60880
O43         O  0.43069521  0.14362599  0.44919406    -0.51790
C44         C  0.43055029  0.19252224  0.29283520     0.70230
O45         O  0.44724465  0.21130325  0.32900548    -0.46650
C46         C  0.99776564  0.19535326  0.41080738     0.74930
O47         O  0.46049144  0.22853508  0.41948705    -0.58510
O48         O  0.48551485  0.19378185  0.46249220    -0.48600
O49         O  0.44454426  0.20307066  0.50366400    -0.54940
C50         C  0.40910509  0.14177321  0.46290443     0.85110
O51         O  0.42534332  0.16959107  0.31130789    -0.56830
O52         O  0.48390848  0.18857726  0.35808986    -0.60130
C53         C  0.34454557  0.17942534  0.83293962    -0.02510
C54         C  0.34988951  0.19513039  0.12877262    -0.02510
In55       In  0.45056373  0.28585108  0.57293710     1.36870
C56         C  0.45305835  0.24739221  0.51338606     0.77560
O57         O  0.41359381  0.26767538  0.51104612    -0.60880
O58         O  0.43280516  0.30926378  0.52996015    -0.51790
C59         C  0.42607765  0.26910800  0.68775135     0.70230
O60         O  0.44144200  0.26212961  0.66723967    -0.46650
C61         C  0.00187304  0.32336507  0.58152639     0.74930
O62         O  0.44523205  0.24506138  0.57212999    -0.58510
O63         O  0.98864327  0.31858875  0.52837044    -0.48600
O64         O  0.45992217  0.26939480  0.48558918    -0.54940
C65         C  0.41343509  0.28882868  0.50296105     0.85110
O66         O  0.42584202  0.28723523  0.65359891    -0.56830
O67         O  0.48825203  0.31189383  0.63212303    -0.60130
In68       In  0.34903235  0.28512464  0.40756816     1.36870
C69         C  0.30672217  0.24471809  0.46758408     0.77560
O70         O  0.37166461  0.26705756  0.44668463    -0.60880
O71         O  0.39032599  0.30907023  0.45494057    -0.51790
C72         C  0.34842829  0.27132371  0.28229110     0.70230
O73         O  0.32789946  0.26318749  0.31612191    -0.46650
C74         C  0.33805188  0.32334552  0.40708153     0.74930
O75         O  0.31046598  0.24541795  0.40611495    -0.58510
O76         O  0.33891523  0.31182012  0.45937599    -0.48600
O77         O  0.32470482  0.26457184  0.49905299    -0.54940
C78         C  0.39149617  0.28858655  0.46687467     0.85110
O79         O  0.36981993  0.28808658  0.31169178    -0.56830
O80         O  0.34626504  0.31804660  0.35616693    -0.60130
In81       In  0.07765861  0.24678491  0.41697281     1.36870
C82         C  0.07542858  0.28439390  0.48183105     0.77560
O83         O  0.04028871  0.21785138  0.35996782    -0.60880
O84         O  0.03982864  0.21617482  0.46532589    -0.51790
C85         C  0.10295214  0.26703163  0.30480685     0.70230
O86         O  0.09070832  0.27619949  0.33298552    -0.46650
C87         C  0.11600990  0.24252755  0.47493638     0.74930
O88         O  0.07063212  0.28069166  0.42033484    -0.58510
O89         O  0.09436476  0.22190611  0.45721298    -0.48600
O90         O  0.08062253  0.26842707  0.51051318    -0.54940
C91         C  0.02667513  0.20879186  0.41173609     0.85110
O92         O  0.09953782  0.24555804  0.32925669    -0.56830
O93         O  0.11714300  0.26425656  0.46499464    -0.60130
In94       In  0.18250972  0.24715480  0.55805720     1.36870
C95         C  0.22380443  0.28499312  0.49171589     0.77560
O96         O  0.18996293  0.21789675  0.61318925    -0.60880
O97         O  0.18738260  0.21620433  0.50795172    -0.51790
C98         C  0.18137974  0.26922650  0.67004402     0.70230
O99         O  0.20186599  0.27841491  0.63576541    -0.46650
C100        C  0.13899447  0.24260890  0.50359755     0.74930
O101        O  0.22517783  0.27985574  0.55219791    -0.58510
O102        O  0.13918395  0.22213460  0.52290120    -0.48600
O103        O  0.20157627  0.26994246  0.46390749    -0.54940
C104        C  0.19298966  0.20839592  0.56089714     0.85110
O105        O  0.16211146  0.24676644  0.65188503    -0.56830
O106        O  0.16069671  0.26432602  0.51089279    -0.60130
In107      In  0.28786284  0.45054933  0.55576228     1.36870
C108        C  0.25265240  0.46063871  0.50358832     0.77560
O109        O  0.31496968  0.48686977  0.61684834    -0.60880
O110        O  0.31919846  0.98938133  0.51181657    -0.51790
C111        C  0.26235566  0.42375122  0.66312852     0.70230
O112        O  0.25182803  0.42259054  0.60743271    -0.46650
C113        C  0.29225851  0.41426486  0.48903245     0.74930
O114        O  0.25484562  0.45811593  0.56515339    -0.58510
O115        O  0.31100331  0.43113123  0.52590902    -0.48600
O116        O  0.26976440  0.46006160  0.46878428    -0.54940
C117        C  0.32492713  0.00157471  0.56630194     0.85110
O118        O  0.28747847  0.43734716  0.66410514    -0.56830
O119        O  0.27258610  0.41677513  0.48568821    -0.60130
In120      In  0.28665333  0.34924543  0.39671419     1.36870
C121        C  0.24611729  0.30742085  0.45752419     0.77560
O122        O  0.31891369  0.34546726  0.35069149    -0.60880
O123        O  0.31264424  0.33897043  0.45440001    -0.51790
C124        C  0.27213064  0.34864077  0.27059274     0.70230
O125        O  0.26675153  0.32784116  0.30295983    -0.46650
C126        C  0.29165823  0.39219654  0.45451579     0.74930
O127        O  0.24470563  0.31362064  0.39811850    -0.58510
O128        O  0.31164251  0.39063343  0.44362338    -0.48600
O129        O  0.26808417  0.32254298  0.48593567    -0.54940
C130        C  0.32405837  0.33758151  0.40428223     0.85110
O131        O  0.28747866  0.37028602  0.30087907    -0.56830
O132        O  0.27004761  0.37263362  0.43400070    -0.60130
C133        C  0.17998434  0.34845227  0.83860219    -0.02510
C134        C  0.18807113  0.34382947  0.13344957    -0.02510
In135      In  0.08055405  0.34798566  0.58004145     1.36870
C136        C  0.07607944  0.30625910  0.51687463     0.77560
O137        O  0.04419482  0.34028280  0.63449195    -0.60880
O138        O  0.04375515  0.34242565  0.52951247    -0.51790
C139        C  0.09749341  0.34833960  0.70368757     0.70230
O140        O  0.08154997  0.32736247  0.67223027    -0.46650
C141        C  0.12060792  0.38988686  0.51747831     0.74930
O142        O  0.08357282  0.31153025  0.57648651    -0.58510
O143        O  0.10002004  0.38972825  0.53297986    -0.48600
O144        O  0.07017544  0.32186908  0.48950395    -0.54940
C145        C  0.03083116  0.33696052  0.58219469     0.85110
O146        O  0.10319029  0.36983990  0.67375761    -0.56830
O147        O  0.12085980  0.36955814  0.53635431    -0.60130
In148      In  0.18526676  0.44894335  0.41351325     1.36870
C149        C  0.22997413  0.46055048  0.47420007     0.77560
O150        O  0.19182116  0.48458786  0.35210813    -0.60880
O151        O  0.19078917  0.48619507  0.45720508    -0.51790
C152        C  0.18667396  0.42153708  0.31071043     0.70230
O153        O  0.20292552  0.43069521  0.35817380    -0.46650
C154        C  0.14294774  0.41143706  0.48029600     0.74930
O155        O  0.22871549  0.46485461  0.41309464    -0.58510
O156        O  0.14218344  0.42935931  0.44664363    -0.48600
O157        O  0.20896863  0.45281465  0.50590515    -0.54940
C158        C  0.19555565  0.99859851  0.40271052     0.85110
O159        O  0.16894255  0.42734714  0.31282880    -0.56830
O160        O  0.16474013  0.41278828  0.47871315    -0.60130
C161        C  0.18860687  0.40449036  0.26035901    -0.05480
C162        C  0.17292336  0.39623839  0.20223577    -0.32910
C163        C  0.17392802  0.37858038  0.15747372     0.36340
C164        C  0.19053759  0.36818575  0.17107265    -0.05840
C165        C  0.20568031  0.37662384  0.23071648    -0.32810
C166        C  0.20565153  0.39494993  0.27296199     0.36240
H167        H  0.15955735  0.40318848  0.19172788     0.16610
O168        O  0.15762466  0.37079496  0.10237592    -0.60310
H169        H  0.21712348  0.36817329  0.24768082     0.16630
O170        O  0.22188419  0.40250036  0.32838541    -0.60410
H171        H  0.21181096  0.38837124  0.36215527     0.43620
H172        H  0.16474100  0.38693176  0.07358465     0.43580
C173        C  0.15263484  0.34632652  0.83125856    -0.05480
C174        C  0.15049106  0.36903712  0.83593068    -0.32910
C175        C  0.13072172  0.37013267  0.79870305     0.36340
C176        C  0.11094491  0.34709890  0.76550151    -0.05840
C177        C  0.10812284  0.32255474  0.78278559    -0.32810
C178        C  0.12877452  0.32191345  0.81585291     0.36240
H179        H  0.16664463  0.38736194  0.85699940     0.16610
O180        O  0.13283100  0.39427194  0.78877544    -0.60310
H181        H  0.09151746  0.30401636  0.76373259     0.16630
O182        O  0.12603562  0.29762069  0.82951042    -0.60410
H183        H  0.12217153  0.28821530  0.78642330     0.43620
H184        H  0.12126053  0.39486260  0.82258372     0.43580
C185        C  0.18397863  0.34765183  0.91478074    -0.05480
C186        C  0.17006494  0.32304795  0.94898577    -0.32910
C187        C  0.17147801  0.32119432  0.01820440     0.36340
C188        C  0.18425098  0.34461134  0.05738240    -0.05840
C189        C  0.19773413  0.36934019  0.02348849    -0.32810
C190        C  0.19737726  0.37112466  0.95399101     0.36240
H191        H  0.15820769  0.30463431  0.92199888     0.16610
O192        O  0.16104486  0.29629984  0.04664940    -0.60310
H193        H  0.20874825  0.38777856  0.05105629     0.16630
O194        O  0.20909078  0.39612570  0.92568777    -0.60410
H195        H  0.22844933  0.40403471  0.93167021     0.43620
H196        H  0.14244850  0.28525558  0.03036947     0.43580
C197        C  0.25800542  0.34711222  0.20746489    -0.05480
C198        C  0.23672229  0.32209720  0.18729456    -0.32910
C199        C  0.21491725  0.32010874  0.15296154     0.36340
C200        C  0.21432910  0.34360910  0.14026831    -0.05840
C201        C  0.23911712  0.36806239  0.14124630    -0.32810
C202        C  0.26062343  0.37009498  0.17716811     0.36240
H203        H  0.23541648  0.30393427  0.20487067     0.16610
O204        O  0.19371056  0.29527917  0.13667005    -0.60310
H205        H  0.24055605  0.38635496  0.12453412     0.16630
O206        O  0.28244646  0.39490255  0.18961636    -0.60410
H207        H  0.29562617  0.39730944  0.15636669     0.43620
H208        H  0.18872757  0.28417532  0.17776046     0.43580
C209        C  0.24519560  0.41067114  0.72070418    -0.05480
C210        C  0.25034852  0.39643866  0.76865000    -0.32910
C211        C  0.23010342  0.37823167  0.81147545     0.36340
C212        C  0.20398782  0.37364900  0.80560093    -0.05840
C213        C  0.20040523  0.39013159  0.76027868    -0.32810
C214        C  0.22072749  0.40892785  0.72068525     0.36240
H215        H  0.26938399  0.39804036  0.77010852     0.16610
O216        O  0.23563298  0.36406228  0.85690538    -0.60310
H217        H  0.18143264  0.38729979  0.74822817     0.16630
O218        O  0.21591883  0.42468055  0.67877790    -0.60410
H219        H  0.20426963  0.41273685  0.64262323     0.43620
H220        H  0.24046929  0.35321994  0.83050618     0.43580
C221        C  0.17881411  0.28625304  0.71739956    -0.05480
C222        C  0.17098379  0.30306396  0.69084531    -0.32910
C223        C  0.17139726  0.32269831  0.72928242     0.36340
C224        C  0.17913099  0.32562462  0.79779234    -0.05840
C225        C  0.18808065  0.30900885  0.82315421    -0.32810
C226        C  0.18782735  0.28944388  0.78351544     0.36240
H227        H  0.16528537  0.30157952  0.63870622     0.16610
O228        O  0.16499241  0.33964155  0.69857042    -0.60310
H229        H  0.19653475  0.31175705  0.87262207     0.16630
O230        O  0.19690049  0.27395971  0.80940599    -0.60410
H231        H  0.21621882  0.28422863  0.80107580     0.43620
H232        H  0.14632420  0.32829892  0.68301889     0.43580
C233        C  0.12321869  0.28273105  0.25535706    -0.05480
C234        C  0.11708803  0.29104484  0.19585947    -0.32910
C235        C  0.13729636  0.30935016  0.15329836     0.36340
C236        C  0.16449179  0.31992733  0.17070432    -0.05840
C237        C  0.16976204  0.31245694  0.23377735    -0.32810
C238        C  0.14973391  0.29350030  0.27405567     0.36240
H239        H  0.09658592  0.28390581  0.18317410     0.16610
O240        O  0.13021158  0.31819192  0.09773420    -0.60310
H241        H  0.18972578  0.32179333  0.25363802     0.16630
O242        O  0.15631318  0.28767785  0.33519198    -0.60410
H243        H  0.15885534  0.27260002  0.32734150     0.43620
H244        H  0.11718743  0.30204345  0.07250893     0.43580
C245        C  0.34712806  0.21976932  0.14234061    -0.05480
C246        C  0.36914380  0.24636927  0.14001659    -0.32910
C247        C  0.36984449  0.26565960  0.18166447     0.36340
C248        C  0.34707847  0.25915432  0.21748785    -0.05840
C249        C  0.32292388  0.23652602  0.19825330    -0.32810
C250        C  0.32270374  0.21687222  0.15984317     0.36240
H251        H  0.38729260  0.25075704  0.11667491     0.16610
O252        O  0.39345232  0.28906953  0.19314583    -0.60310
H253        H  0.30445895  0.23252261  0.21886620     0.16630
O254        O  0.29883511  0.19486493  0.14128516    -0.60410
H255        H  0.28930997  0.18638403  0.18312064     0.43620
H256        H  0.39298145  0.30242229  0.16334393     0.43580
C257        C  0.40668065  0.25377877  0.73996632    -0.05480
C258        C  0.41314376  0.24272721  0.79397446    -0.32910
C259        C  0.39310671  0.22104577  0.83015392     0.36340
C260        C  0.36640515  0.20790086  0.80683090    -0.05840
C261        C  0.36026011  0.22251549  0.76071412    -0.32810
C262        C  0.38000210  0.24490247  0.72725457     0.36240
H263        H  0.43371997  0.24998548  0.80595453     0.16610
O264        O  0.40018289  0.21070099  0.88251537    -0.60310
H265        H  0.34013527  0.21640261  0.74744797     0.16630
O266        O  0.37284160  0.25631166  0.67759464    -0.60410
H267        H  0.36968575  0.24535340  0.63754691     0.43620
H268        H  0.40161933  0.22149097  0.92148956     0.43580
C269        C  0.34287497  0.18166563  0.90971993    -0.05480
C270        C  0.34245389  0.16283661  0.95490327    -0.32910
C271        C  0.34167471  0.16526447  0.02399774     0.36340
C272        C  0.34554962  0.18911322  0.05200382    -0.05840
C273        C  0.34496864  0.20745588  0.00639387    -0.32810
C274        C  0.34302135  0.20368351  0.93757886     0.36240
H275        H  0.34264798  0.14569088  0.93813426     0.16610
O276        O  0.33856764  0.14455642  0.06385348    -0.60310
H277        H  0.34614379  0.22542782  0.02244563     0.16630
O278        O  0.34133753  0.22197319  0.89782143    -0.60410
H279        H  0.35892674  0.23878382  0.90134390     0.43620
H280        H  0.32199178  0.12826917  0.04852680     0.43580
C281        C  0.41589958  0.19738629  0.23980549    -0.05480
C282        C  0.40598715  0.18181421  0.18268510    -0.32910
C283        C  0.38920087  0.18494631  0.13778051     0.36340
C284        C  0.37806405  0.20054960  0.15487750    -0.05840
C285        C  0.39155506  0.21840636  0.20859093    -0.32810
C286        C  0.41027787  0.21737944  0.24899687     0.36240
H287        H  0.41232442  0.16814863  0.17103026     0.16610
O288        O  0.38775887  0.17608631  0.07467794    -0.60310
H289        H  0.38595791  0.23164578  0.22727260     0.16630
O290        O  0.42027707  0.23400156  0.30298643    -0.60410
H291        H  0.43583247  0.25076970  0.28609993     0.43620
H292        H  0.40062717  0.19211041  0.04883035     0.43580
C293        C  0.35078338  0.15735247  0.81470148    -0.05480
C294        C  0.37459625  0.16365946  0.78321750    -0.32910
C295        C  0.37670569  0.14474802  0.74756926     0.36340
C296        C  0.35473257  0.11867428  0.74087321    -0.05840
C297        C  0.33227863  0.11100244  0.77892860    -0.32810
C298        C  0.33033892  0.12973765  0.81666874     0.36240
H299        H  0.39138461  0.18357721  0.77910820     0.16610
O300        O  0.39963834  0.15288551  0.71386690    -0.60310
H301        H  0.31520216  0.09083178  0.77535390     0.16630
O302        O  0.30680164  0.12154718  0.84749839    -0.60410
H303        H  0.30510455  0.10873448  0.88270862     0.43620
H304        H  0.39842979  0.16186707  0.67289216     0.43580
C305        C  0.27426824  0.16498067  0.71948363    -0.05480
C306        C  0.29301386  0.16105820  0.69058717    -0.32910
C307        C  0.31494491  0.16490548  0.72679212     0.36340
C308        C  0.31781871  0.17108985  0.79597021    -0.05840
C309        C  0.29669981  0.17151906  0.82636033    -0.32810
C310        C  0.27567583  0.16963495  0.78797176     0.36240
H311        H  0.29216316  0.15770552  0.63745624     0.16610
O312        O  0.33436271  0.16425722  0.69265824    -0.60310
H313        H  0.29692842  0.17494575  0.87893703     0.16630
O314        O  0.25754575  0.17385167  0.81707763    -0.60410
H315        H  0.24296215  0.15586576  0.83101428     0.43620
H316        H  0.34388562  0.18134058  0.66742315     0.43580
C317        C  0.28927945  0.12939916  0.25412199    -0.05480
C318        C  0.31142057  0.15153887  0.28213601    -0.32910
C319        C  0.32962529  0.17282206  0.24334637     0.36340
C320        C  0.32814236  0.17150000  0.17245888    -0.05840
C321        C  0.30424294  0.14967053  0.14508637    -0.32810
C322        C  0.28500953  0.12888184  0.18529484     0.36240
H323        H  0.31402747  0.15308754  0.33580036     0.16610
O324        O  0.34747155  0.19548709  0.27674444    -0.60310
H325        H  0.29949227  0.14909786  0.09277651     0.16630
O326        O  0.26258605  0.10803900  0.15669097    -0.60410
H327        H  0.24962882  0.11382136  0.15494910     0.43620
H328        H  0.33775035  0.20433906  0.28806614     0.43580
In329      In  0.24571754  0.57945971  0.40633246     1.36870
C330        C  0.28130222  0.57377569  0.47349429     0.77560
O331        O  0.26064346  0.61649331  0.46365618    -0.60880
O332        O  0.22007075  0.59636332  0.43527930    -0.51790
C333        C  0.27170634  0.60822426  0.30090962     0.70230
O334        O  0.28167279  0.60151703  0.34699141    -0.46650
C335        C  0.20883717  0.52781369  0.40065257     0.74930
O336        O  0.27634366  0.56831992  0.41259916    -0.58510
O337        O  0.21446084  0.54119744  0.45317808    -0.48600
O338        O  0.26685238  0.58049368  0.50133195    -0.54940
C339        C  0.23940714  0.61626300  0.46396403     0.85110
O340        O  0.24690788  0.59795442  0.30425930    -0.56830
O341        O  0.21915737  0.54150124  0.34877505    -0.60130
In342      In  0.24261386  0.67977015  0.55768182     1.36870
C343        C  0.28349624  0.72227104  0.49957532     0.77560
O344        O  0.26029218  0.65911715  0.51165745    -0.60880
O345        O  0.21821658  0.63837302  0.50957743    -0.51790
C346        C  0.25830157  0.67023262  0.67268289     0.70230
O347        O  0.26718250  0.69351848  0.65026133    -0.46650
C348        C  0.20629589  0.69331843  0.56064954     0.74930
O349        O  0.28049687  0.72030666  0.56159123    -0.58510
O350        O  0.21304882  0.68767011  0.50761705    -0.48600
O351        O  0.26518595  0.70305406  0.46712003    -0.54940
C352        C  0.23885837  0.63830929  0.49532915     0.85110
O353        O  0.23858773  0.65186957  0.64130115    -0.56830
O354        O  0.21535344  0.68863765  0.61272952    -0.60130
In355      In  0.34694522  0.58002804  0.56593888     1.36870
C356        C  0.30354884  0.57433623  0.50756857     0.77560
O357        O  0.36542001  0.61740326  0.50498490    -0.60880
O358        O  0.38891873  0.60068727  0.52670937    -0.51790
C359        C  0.35277352  0.60199546  0.68406152     0.70230
O360        O  0.33071850  0.58334499  0.66216382    -0.46650
C361        C  0.33762291  0.53059723  0.56861466     0.74930
O362        O  0.31020984  0.58218135  0.56643241    -0.58510
O363        O  0.34343334  0.54448455  0.51646221    -0.48600
O364        O  0.31857331  0.56866077  0.47897852    -0.54980
C365        C  0.38729312  0.61912576  0.49840426     0.85110
O366        O  0.37231227  0.60719537  0.64873457    -0.56830
O367        O  0.33953120  0.54289790  0.62098301    -0.60130
In368      In  0.44887543  0.68596408  0.40858669     1.36870
C369        C  0.45302680  0.72588660  0.47855596     0.77560
O370        O  0.40765909  0.66160864  0.44551206    -0.60880
O371        O  0.43069522  0.64362601  0.44919403    -0.51790
C372        C  0.43055031  0.69252225  0.29283517     0.70230
O373        O  0.44724467  0.71130326  0.32900544    -0.46650
C374        C  0.99776563  0.69535325  0.41080733     0.74930
O375        O  0.46049142  0.72853509  0.41948701    -0.58510
O376        O  0.48551486  0.69378187  0.46249219    -0.48600
O377        O  0.44454429  0.70307068  0.50366401    -0.54940
C378        C  0.40910510  0.64177322  0.46290442     0.85110
O379        O  0.42534333  0.66959108  0.31130788    -0.56830
O380        O  0.48390849  0.68857728  0.35808985    -0.60130
C381        C  0.34454556  0.67942535  0.83293958    -0.02510
C382        C  0.34988951  0.69513036  0.12877261    -0.02510
In383      In  0.45056374  0.78585109  0.57293711     1.36870
C384        C  0.45305836  0.74739222  0.51338606     0.77560
O385        O  0.41359381  0.76767538  0.51104617    -0.60880
O386        O  0.43280517  0.80926380  0.52996015    -0.51790
C387        C  0.42607766  0.76910802  0.68775136     0.70230
O388        O  0.44144200  0.76212961  0.66723967    -0.46650
C389        C  0.00187305  0.82336507  0.58152637     0.74930
O390        O  0.44523209  0.74506140  0.57213001    -0.58510
O391        O  0.98864327  0.81858873  0.52837041    -0.48600
O392        O  0.45992216  0.76939480  0.48558915    -0.54940
C393        C  0.41343510  0.78882868  0.50296107     0.85110
O394        O  0.42584204  0.78723525  0.65359893    -0.56830
O395        O  0.48825205  0.81189384  0.63212305    -0.60130
In396      In  0.34903236  0.78512464  0.40756818     1.36870
C397        C  0.30672217  0.74471810  0.46758411     0.77560
O398        O  0.37166462  0.76705756  0.44668468    -0.60880
O399        O  0.39032600  0.80907023  0.45494058    -0.51790
C400        C  0.34842828  0.77132368  0.28229114     0.70230
O401        O  0.32789945  0.76318747  0.31612197    -0.46650
C402        C  0.33805189  0.82334552  0.40708155     0.74930
O403        O  0.31046596  0.74541797  0.40611497    -0.58510
O404        O  0.33891523  0.81182012  0.45937601    -0.48600
O405        O  0.32470484  0.76457183  0.49905303    -0.54940
C406        C  0.39149618  0.78858655  0.46687469     0.85110
O407        O  0.36981992  0.78808656  0.31169179    -0.56830
O408        O  0.34626506  0.81804660  0.35616696    -0.60130
In409      In  0.07765860  0.74678489  0.41697278     1.36870
C410        C  0.07542858  0.78439389  0.48183101     0.77560
O411        O  0.04028870  0.71785138  0.35996777    -0.60880
O412        O  0.03982863  0.71617480  0.46532585    -0.51790
C413        C  0.10295214  0.76703160  0.30480683     0.70230
O414        O  0.09070831  0.77619946  0.33298546    -0.46650
C415        C  0.11600989  0.74252754  0.47493638     0.74930
O416        O  0.07063215  0.78069167  0.42033479    -0.58510
O417        O  0.09436475  0.72190610  0.45721295    -0.48600
O418        O  0.08062249  0.76842704  0.51051316    -0.54940
C419        C  0.02667512  0.70879186  0.41173604     0.85110
O420        O  0.09953782  0.74555801  0.32925671    -0.56830
O421        O  0.11714298  0.76425655  0.46499465    -0.60130
In422      In  0.18250971  0.74715480  0.55805718     1.36870
C423        C  0.22380443  0.78499312  0.49171586     0.77560
O424        O  0.18996292  0.71789675  0.61318924    -0.60880
O425        O  0.18738259  0.71620434  0.50795170    -0.51790
C426        C  0.18137974  0.76922651  0.67004400     0.70230
O427        O  0.20186598  0.77841493  0.63576536    -0.46650
C428        C  0.13899446  0.74260890  0.50359754     0.74930
O429        O  0.22517783  0.77985573  0.55219788    -0.58510
O430        O  0.13918395  0.72213460  0.52290116    -0.48600
O431        O  0.20157626  0.76994247  0.46390748    -0.54940
C432        C  0.19298965  0.70839592  0.56089713     0.85110
O433        O  0.16211147  0.74676644  0.65188503    -0.56830
O434        O  0.16069669  0.76432602  0.51089281    -0.60130
In435      In  0.28786284  0.95054931  0.55576232     1.36870
C436        C  0.25265238  0.96063867  0.50358837     0.77560
O437        O  0.31496965  0.98686976  0.61684838    -0.60880
O438        O  0.31919846  0.48938134  0.51181651    -0.51790
C439        C  0.26235567  0.92375120  0.66312856     0.70230
O440        O  0.25182803  0.92259049  0.60743273    -0.46650
C441        C  0.29225852  0.91426485  0.48903248     0.74930
O442        O  0.25484558  0.95811586  0.56515344    -0.58510
O443        O  0.31100331  0.93113121  0.52590909    -0.48600
O444        O  0.26976440  0.96006159  0.46878434    -0.54940
C445        C  0.32492715  0.50157473  0.56630189     0.85110
O446        O  0.28747847  0.93734715  0.66410519    -0.56830
O447        O  0.27258611  0.91677513  0.48568820    -0.60130
In448      In  0.28665334  0.84924543  0.39671420     1.36870
C449        C  0.24611729  0.80742085  0.45752417     0.77560
O450        O  0.31891370  0.84546726  0.35069151    -0.60880
O451        O  0.31264425  0.83897043  0.45440002    -0.51790
C452        C  0.27213066  0.84864078  0.27059273     0.70230
O453        O  0.26675155  0.82784117  0.30295981    -0.46650
C454        C  0.29165824  0.89219654  0.45451581     0.74930
O455        O  0.24470563  0.81362065  0.39811848    -0.58510
O456        O  0.31164252  0.89063342  0.44362342    -0.48600
O457        O  0.26808418  0.82254297  0.48593565    -0.54940
C458        C  0.32405838  0.83758151  0.40428225     0.85110
O459        O  0.28747868  0.87028603  0.30087909    -0.56830
O460        O  0.27004762  0.87263362  0.43400069    -0.60130
C461        C  0.17998434  0.84845226  0.83860222    -0.02510
C462        C  0.18807113  0.84382944  0.13344959    -0.02510
In463      In  0.08055406  0.84798566  0.58004143     1.36870
C464        C  0.07607944  0.80625909  0.51687459     0.77560
O465        O  0.04419484  0.84028281  0.63449192    -0.60880
O466        O  0.04375516  0.84242563  0.52951244    -0.51790
C467        C  0.09749342  0.84833959  0.70368755     0.70230
O468        O  0.08154999  0.82736246  0.67223023    -0.46650
C469        C  0.12060795  0.88988685  0.51747829     0.74930
O470        O  0.08357279  0.81153023  0.57648650    -0.58510
O471        O  0.10002007  0.88972824  0.53297985    -0.48600
O472        O  0.07017547  0.82186909  0.48950390    -0.54940
C473        C  0.03083117  0.83696052  0.58219465     0.85110
O474        O  0.10319029  0.86983989  0.67375759    -0.56830
O475        O  0.12085982  0.86955813  0.53635429    -0.60130
In476      In  0.18526677  0.94894335  0.41351319     1.36870
C477        C  0.22997410  0.96055043  0.47420011     0.77560
O478        O  0.19182112  0.98458784  0.35210808    -0.60880
O479        O  0.19078918  0.98619507  0.45720502    -0.51790
C480        C  0.18667396  0.92153710  0.31071032     0.70230
O481        O  0.20292568  0.93069545  0.35817333    -0.46650
C482        C  0.14294776  0.91143704  0.48029596     0.74930
O483        O  0.22871549  0.96485460  0.41309470    -0.58510
O484        O  0.14218347  0.92935932  0.44664368    -0.48600
O485        O  0.20896859  0.95281457  0.50590514    -0.54940
C486        C  0.19555566  0.49859851  0.40271058     0.85110
O487        O  0.16894242  0.92734697  0.31282901    -0.56830
O488        O  0.16474014  0.91278825  0.47871301    -0.60130
C489        C  0.18860684  0.90449033  0.26035900    -0.05480
C490        C  0.17292335  0.89623836  0.20223573    -0.32910
C491        C  0.17392801  0.87858035  0.15747370     0.36340
C492        C  0.19053756  0.86818570  0.17107269    -0.05840
C493        C  0.20568025  0.87662376  0.23071658    -0.32810
C494        C  0.20565146  0.89494986  0.27296209     0.36240
H495        H  0.15955736  0.90318848  0.19172778     0.16610
O496        O  0.15762468  0.87079495  0.10237586    -0.60310
H497        H  0.21712340  0.86817320  0.24768096     0.16630
O498        O  0.22188406  0.90250024  0.32838562    -0.60410
H499        H  0.21181074  0.88837114  0.36215547     0.43620
H500        H  0.16474103  0.88693176  0.07358462     0.43580
C501        C  0.15263483  0.84632651  0.83125858    -0.05480
C502        C  0.15049106  0.86903711  0.83593069    -0.32910
C503        C  0.13072172  0.87013266  0.79870304     0.36340
C504        C  0.11094491  0.84709889  0.76550150    -0.05840
C505        C  0.10812284  0.82255473  0.78278560    -0.32810
C506        C  0.12877452  0.82191344  0.81585294     0.36240
H507        H  0.16664463  0.88736193  0.85699941     0.16610
O508        O  0.13283100  0.89427194  0.78877541    -0.60310
H509        H  0.09151746  0.80401636  0.76373259     0.16630
O510        O  0.12603561  0.79762068  0.82951046    -0.60410
H511        H  0.12217153  0.78821529  0.78642334     0.43620
H512        H  0.12126053  0.89486259  0.82258368     0.43580
C513        C  0.18397863  0.84765181  0.91478076    -0.05480
C514        C  0.17006493  0.82304794  0.94898578    -0.32910
C515        C  0.17147801  0.82119429  0.01820441     0.36340
C516        C  0.18425099  0.84461131  0.05738242    -0.05840
C517        C  0.19773413  0.86934017  0.02348852    -0.32810
C518        C  0.19737726  0.87112464  0.95399104     0.36240
H519        H  0.15820768  0.80463429  0.92199889     0.16610
O520        O  0.16104486  0.79629981  0.04664940    -0.60310
H521        H  0.20874826  0.88777853  0.05105632     0.16630
O522        O  0.20909078  0.89612569  0.92568781    -0.60410
H523        H  0.22844932  0.90403470  0.93167024     0.43620
H524        H  0.14244849  0.78525556  0.03036949     0.43580
C525        C  0.25800545  0.84711224  0.20746489    -0.05480
C526        C  0.23672234  0.82209723  0.18729450    -0.32910
C527        C  0.21491729  0.82010875  0.15296148     0.36340
C528        C  0.21432911  0.84360910  0.14026834    -0.05840
C529        C  0.23911712  0.86806241  0.14124640    -0.32810
C530        C  0.26062344  0.87009500  0.17716818     0.36240
H531        H  0.23541654  0.80393429  0.20487055     0.16610
O532        O  0.19371062  0.79527919  0.13666992    -0.60310
H533        H  0.24055604  0.88635498  0.12453429     0.16630
O534        O  0.28244646  0.89490258  0.18961648    -0.60410
H535        H  0.29562618  0.89730949  0.15636680     0.43620
H536        H  0.18872763  0.78417532  0.17776030     0.43580
C537        C  0.24519560  0.91067112  0.72070422    -0.05480
C538        C  0.25034852  0.89643864  0.76865005    -0.32910
C539        C  0.23010342  0.87823165  0.81147550     0.36340
C540        C  0.20398782  0.87364899  0.80560096    -0.05840
C541        C  0.20040523  0.89013158  0.76027870    -0.32810
C542        C  0.22072749  0.90892784  0.72068528     0.36240
H543        H  0.26938398  0.89804035  0.77010858     0.16610
O544        O  0.23563297  0.86406227  0.85690543    -0.60310
H545        H  0.18143264  0.88729978  0.74822819     0.16630
O546        O  0.21591884  0.92468053  0.67877790    -0.60410
H547        H  0.20426963  0.91273683  0.64262324     0.43620
H548        H  0.24046928  0.85321993  0.83050624     0.43580
C549        C  0.17881411  0.78625304  0.71739955    -0.05480
C550        C  0.17098378  0.80306396  0.69084531    -0.32910
C551        C  0.17139725  0.82269831  0.72928244     0.36340
C552        C  0.17913098  0.82562461  0.79779236    -0.05840
C553        C  0.18808065  0.80900884  0.82315421    -0.32810
C554        C  0.18782735  0.78944388  0.78351543     0.36240
H555        H  0.16528536  0.80157952  0.63870623     0.16610
O556        O  0.16499240  0.83964155  0.69857044    -0.60310
H557        H  0.19653474  0.81175704  0.87262207     0.16630
O558        O  0.19690049  0.77395971  0.80940597    -0.60410
H559        H  0.21621882  0.78422863  0.80107577     0.43620
H560        H  0.14632419  0.82829892  0.68301891     0.43580
C561        C  0.12321869  0.78273100  0.25535703    -0.05480
C562        C  0.11708803  0.79104482  0.19585947    -0.32910
C563        C  0.13729637  0.80935014  0.15329837     0.36340
C564        C  0.16449180  0.81992728  0.17070431    -0.05840
C565        C  0.16976204  0.81245686  0.23377730    -0.32810
C566        C  0.14973391  0.79350023  0.27405561     0.36240
H567        H  0.09658593  0.78390581  0.18317413     0.16610
O568        O  0.13021159  0.81819192  0.09773424    -0.60310
H569        H  0.18972579  0.82179324  0.25363796     0.16630
O570        O  0.15631318  0.78767774  0.33519189    -0.60410
H571        H  0.15885532  0.77259991  0.32734136     0.43620
H572        H  0.11718744  0.80204345  0.07250895     0.43580
C573        C  0.34712804  0.71976928  0.14234064    -0.05480
C574        C  0.36914376  0.74636924  0.14001656    -0.32910
C575        C  0.36984446  0.76565957  0.18166446     0.36340
C576        C  0.34707845  0.75915428  0.21748791    -0.05840
C577        C  0.32292386  0.73652596  0.19825342    -0.32810
C578        C  0.32270372  0.71687217  0.15984327     0.36240
H579        H  0.38729256  0.75075703  0.11667481     0.16610
O580        O  0.39345228  0.78906951  0.19314576    -0.60310
H581        H  0.30445893  0.73252254  0.21886636     0.16630
O582        O  0.29883509  0.69486487  0.14128529    -0.60410
H583        H  0.28930996  0.68638397  0.18312077     0.43620
H584        H  0.39298139  0.80242226  0.16334387     0.43580
C585        C  0.40668066  0.75377879  0.73996633    -0.05480
C586        C  0.41314376  0.74272723  0.79397446    -0.32910
C587        C  0.39310671  0.72104579  0.83015391     0.36340
C588        C  0.36640515  0.70790088  0.80683088    -0.05840
C589        C  0.36026012  0.72251551  0.76071411    -0.32810
C590        C  0.38000211  0.74490249  0.72725458     0.36240
H591        H  0.43371998  0.74998549  0.80595453     0.16610
O592        O  0.40018288  0.71070100  0.88251535    -0.60310
H593        H  0.34013528  0.71640264  0.74744796     0.16630
O594        O  0.37284161  0.75631169  0.67759465    -0.60410
H595        H  0.36968577  0.74535343  0.63754692     0.43620
H596        H  0.40161933  0.72149098  0.92148955     0.43580
C597        C  0.34287496  0.68166564  0.90971990    -0.05480
C598        C  0.34245386  0.66283660  0.95490322    -0.32910
C599        C  0.34167467  0.66526444  0.02399768     0.36340
C600        C  0.34554961  0.68911320  0.05200380    -0.05840
C601        C  0.34496865  0.70745588  0.00639388    -0.32810
C602        C  0.34302136  0.70368352  0.93757886     0.36240
H603        H  0.34264793  0.64569086  0.93813419     0.16610
O604        O  0.33856754  0.64455636  0.06385339    -0.60310
H605        H  0.34614381  0.72542783  0.02244566     0.16630
O606        O  0.34133756  0.72197322  0.89782145    -0.60410
H607        H  0.35892677  0.73878384  0.90134394     0.43620
H608        H  0.32199167  0.62826914  0.04852666     0.43580
C609        C  0.41589961  0.69738629  0.23980540    -0.05480
C610        C  0.40598711  0.68181415  0.18268513    -0.32910
C611        C  0.38920083  0.68494623  0.13778053     0.36340
C612        C  0.37806406  0.70054958  0.15487742    -0.05840
C613        C  0.39155512  0.71840639  0.20859072    -0.32810
C614        C  0.41027795  0.71737949  0.24899664     0.36240
H615        H  0.41232434  0.66814852  0.17103039     0.16610
O616        O  0.38775876  0.67608613  0.07467804    -0.60310
H617        H  0.38595799  0.73164582  0.22727240     0.16630
O618        O  0.42027721  0.73400167  0.30298607    -0.60410
H619        H  0.43583262  0.75076978  0.28609946     0.43620
H620        H  0.40062707  0.69211018  0.04883033     0.43580
C621        C  0.35078337  0.65735248  0.81470143    -0.05480
C622        C  0.37459624  0.66365947  0.78321746    -0.32910
C623        C  0.37670569  0.64474804  0.74756923     0.36340
C624        C  0.35473257  0.61867430  0.74087318    -0.05840
C625        C  0.33227863  0.61100246  0.77892854    -0.32810
C626        C  0.33033891  0.62973767  0.81666866     0.36240
H627        H  0.39138460  0.68357723  0.77910817     0.16610
O628        O  0.39963835  0.65288553  0.71386690    -0.60310
H629        H  0.31520215  0.59083180  0.77535383     0.16630
O630        O  0.30680163  0.62154720  0.84749828    -0.60410
H631        H  0.30510452  0.60873448  0.88270849     0.43620
H632        H  0.39842980  0.66186709  0.67289215     0.43580
C633        C  0.27426823  0.66498069  0.71948364    -0.05480
C634        C  0.29301385  0.66105822  0.69058717    -0.32910
C635        C  0.31494491  0.66490551  0.72679210     0.36340
C636        C  0.31781871  0.67108987  0.79597018    -0.05840
C637        C  0.29669982  0.67151909  0.82636032    -0.32810
C638        C  0.27567583  0.66963498  0.78797176     0.36240
H639        H  0.29216315  0.65770554  0.63745624     0.16610
O640        O  0.33436270  0.66425725  0.69265820    -0.60310
H641        H  0.29692842  0.67494578  0.87893702     0.16630
O642        O  0.25754575  0.67385170  0.81707764    -0.60410
H643        H  0.24296215  0.65586579  0.83101432     0.43620
H644        H  0.34388561  0.68134061  0.66742311     0.43580
C645        C  0.28927947  0.62939915  0.25412205    -0.05480
C646        C  0.31142062  0.65153884  0.28213604    -0.32910
C647        C  0.32962535  0.67282202  0.24334636     0.36340
C648        C  0.32814238  0.67149997  0.17245888    -0.05840
C649        C  0.30424293  0.64967052  0.14508641    -0.32810
C650        C  0.28500952  0.62888184  0.18529491     0.36240
H651        H  0.31402756  0.65308750  0.33580037     0.16610
O652        O  0.34747167  0.69548703  0.27674442    -0.60310
H653        H  0.29949224  0.64909786  0.09277657     0.16630
O654        O  0.26258601  0.60803903  0.15669108    -0.60410
H655        H  0.24962880  0.61382142  0.15494927     0.43620
H656        H  0.33775051  0.70433905  0.28806613     0.43580
In657      In  0.74571755  0.07945971  0.40633243     1.36870
C658        C  0.78130223  0.07377570  0.47349428     0.77560
O659        O  0.76064347  0.11649331  0.46365612    -0.60880
O660        O  0.72007075  0.09636331  0.43527930    -0.51790
C661        C  0.77170633  0.10822425  0.30090958     0.70230
O662        O  0.78167279  0.10151701  0.34699134    -0.46650
C663        C  0.70883718  0.02781369  0.40065254     0.74930
O664        O  0.77634366  0.06831991  0.41259915    -0.58510
O665        O  0.71446085  0.04119744  0.45317805    -0.48600
O666        O  0.76685239  0.08049370  0.50133192    -0.54940
C667        C  0.73940715  0.11626300  0.46396400     0.85110
O668        O  0.74690788  0.09795442  0.30425929    -0.56830
O669        O  0.71915737  0.04150124  0.34877502    -0.60130
In670      In  0.74261386  0.17977015  0.55768182     1.36870
C671        C  0.78349625  0.22227104  0.49957531     0.77560
O672        O  0.76029218  0.15911715  0.51165742    -0.60880
O673        O  0.71821659  0.13837302  0.50957744    -0.51790
C674        C  0.75830158  0.17023261  0.67268288     0.70230
O675        O  0.76718251  0.19351848  0.65026132    -0.46650
C676        C  0.70629590  0.19331843  0.56064956     0.74930
O677        O  0.78049687  0.22030666  0.56159122    -0.58510
O678        O  0.71304882  0.18767010  0.50761706    -0.48600
O679        O  0.76518595  0.20305406  0.46712002    -0.54940
C680        C  0.73885838  0.13830929  0.49532913     0.85110
O681        O  0.73858774  0.15186957  0.64130114    -0.56830
O682        O  0.71535345  0.18863766  0.61272953    -0.60130
In683      In  0.84694522  0.08002803  0.56593888     1.36870
C684        C  0.80354884  0.07433623  0.50756857     0.77560
O685        O  0.86542001  0.11740325  0.50498489    -0.60880
O686        O  0.88891873  0.10068727  0.52670940    -0.51790
C687        C  0.85277352  0.10199546  0.68406153     0.70230
O688        O  0.83071850  0.08334499  0.66216383    -0.46650
C689        C  0.83762291  0.03059723  0.56861468     0.74930
O690        O  0.81020985  0.08218137  0.56643239    -0.58510
O691        O  0.84343334  0.04448455  0.51646223    -0.48600
O692        O  0.81857330  0.06866076  0.47897854    -0.54980
C693        C  0.88729312  0.11912576  0.49840426     0.85110
O694        O  0.87231227  0.10719537  0.64873458    -0.56830
O695        O  0.83953119  0.04289789  0.62098303    -0.60130
In696      In  0.94887543  0.18596407  0.40858670     1.36870
C697        C  0.95302680  0.22588660  0.47855598     0.77560
O698        O  0.90765909  0.16160863  0.44551203    -0.60880
O699        O  0.93069523  0.14362601  0.44919407    -0.51790
C700        C  0.93055031  0.19252225  0.29283519     0.70230
O701        O  0.94724466  0.21130326  0.32900549    -0.46650
C702        C  0.49776563  0.19535324  0.41080737     0.74930
O703        O  0.96049146  0.22853509  0.41948706    -0.58510
O704        O  0.98551486  0.19378186  0.46249221    -0.48600
O705        O  0.94454425  0.20307066  0.50366400    -0.54940
C706        C  0.90910510  0.14177322  0.46290442     0.85110
O707        O  0.92534334  0.16959109  0.31130787    -0.56830
O708        O  0.98390849  0.18857727  0.35808986    -0.60130
C709        C  0.84454557  0.17942535  0.83293960    -0.02510
C710        C  0.84988952  0.19513038  0.12877262    -0.02510
In711      In  0.95056374  0.28585109  0.57293709     1.36870
C712        C  0.95305835  0.24739222  0.51338606     0.77560
O713        O  0.91359381  0.26767539  0.51104611    -0.60880
O714        O  0.93280516  0.30926379  0.52996015    -0.51790
C715        C  0.92607766  0.26910802  0.68775135     0.70230
O716        O  0.94144200  0.26212962  0.66723967    -0.46650
C717        C  0.50187304  0.32336506  0.58152639     0.74930
O718        O  0.94523204  0.24506138  0.57212998    -0.58510
O719        O  0.48864326  0.31858874  0.52837043    -0.48600
O720        O  0.95992219  0.26939481  0.48558919    -0.54940
C721        C  0.91343509  0.28882868  0.50296104     0.85110
O722        O  0.92584202  0.28723524  0.65359891    -0.56830
O723        O  0.98825204  0.31189383  0.63212304    -0.60130
In724      In  0.84903235  0.28512464  0.40756817     1.36870
C725        C  0.80672217  0.24471810  0.46758410     0.77560
O726        O  0.87166462  0.26705756  0.44668463    -0.60880
O727        O  0.89032599  0.30907023  0.45494057    -0.51790
C728        C  0.84842828  0.27132370  0.28229112     0.70230
O729        O  0.82789945  0.26318747  0.31612195    -0.46650
C730        C  0.83805188  0.32334552  0.40708153     0.74930
O731        O  0.81046596  0.24541798  0.40611495    -0.58510
O732        O  0.83891523  0.31182012  0.45937600    -0.48600
O733        O  0.82470484  0.26457183  0.49905302    -0.54940
C734        C  0.89149618  0.28858656  0.46687466     0.85110
O735        O  0.86981992  0.28808657  0.31169177    -0.56830
O736        O  0.84626505  0.31804661  0.35616694    -0.60130
In737      In  0.57765860  0.24678490  0.41697279     1.36870
C738        C  0.57542857  0.28439389  0.48183103     0.77560
O739        O  0.54028870  0.21785137  0.35996781    -0.60880
O740        O  0.53982863  0.21617482  0.46532588    -0.51790
C741        C  0.60295213  0.26703162  0.30480684     0.70230
O742        O  0.59070830  0.27619948  0.33298549    -0.46650
C743        C  0.61600989  0.24252755  0.47493638     0.74930
O744        O  0.57063212  0.28069166  0.42033482    -0.58510
O745        O  0.59436475  0.22190610  0.45721297    -0.48600
O746        O  0.58062252  0.26842706  0.51051317    -0.54940
C747        C  0.52667512  0.20879185  0.41173608     0.85110
O748        O  0.59953781  0.24555803  0.32925669    -0.56830
O749        O  0.61714299  0.26425656  0.46499463    -0.60130
In750      In  0.68250971  0.24715480  0.55805719     1.36870
C751        C  0.72380442  0.28499312  0.49171587     0.77560
O752        O  0.68996293  0.21789676  0.61318925    -0.60880
O753        O  0.68738259  0.21620433  0.50795172    -0.51790
C754        C  0.68137974  0.26922651  0.67004400     0.70230
O755        O  0.70186598  0.27841493  0.63576536    -0.46650
C756        C  0.63899446  0.24260890  0.50359754     0.74930
O757        O  0.72517783  0.27985573  0.55219789    -0.58510
O758        O  0.63918394  0.22213460  0.52290119    -0.48600
O759        O  0.70157626  0.26994246  0.46390748    -0.54940
C760        C  0.69298965  0.20839592  0.56089714     0.85110
O761        O  0.66211147  0.24676644  0.65188504    -0.56830
O762        O  0.66069670  0.26432602  0.51089279    -0.60130
In763      In  0.78786284  0.45054933  0.55576229     1.36870
C764        C  0.75265240  0.46063870  0.50358832     0.77560
O765        O  0.81496968  0.48686977  0.61684835    -0.60880
O766        O  0.81919847  0.98938134  0.51181654    -0.51790
C767        C  0.76235567  0.42375123  0.66312854     0.70230
O768        O  0.75182803  0.42259054  0.60743273    -0.46650
C769        C  0.79225851  0.41426485  0.48903246     0.74930
O770        O  0.75484561  0.45811592  0.56515339    -0.58510
O771        O  0.81100331  0.43113123  0.52590902    -0.48600
O772        O  0.76976440  0.46006160  0.46878428    -0.54940
C773        C  0.82492715  0.00157472  0.56630192     0.85110
O774        O  0.78747847  0.43734716  0.66410515    -0.56830
O775        O  0.77258609  0.41677512  0.48568824    -0.60130
In776      In  0.78665333  0.34924543  0.39671419     1.36870
C777        C  0.74611729  0.30742084  0.45752417     0.77560
O778        O  0.81891369  0.34546726  0.35069150    -0.60880
O779        O  0.81264424  0.33897043  0.45440001    -0.51790
C780        C  0.77213064  0.34864077  0.27059273     0.70230
O781        O  0.76675153  0.32784116  0.30295982    -0.46650
C782        C  0.79165822  0.39219654  0.45451580     0.74930
O783        O  0.74470562  0.31362064  0.39811849    -0.58510
O784        O  0.81164251  0.39063343  0.44362338    -0.48600
O785        O  0.76808417  0.32254298  0.48593566    -0.54940
C786        C  0.82405837  0.33758151  0.40428223     0.85110
O787        O  0.78747865  0.37028602  0.30087907    -0.56830
O788        O  0.77004760  0.37263362  0.43400071    -0.60130
C789        C  0.67998434  0.34845227  0.83860219    -0.02510
C790        C  0.68807113  0.34382946  0.13344957    -0.02510
In791      In  0.58055404  0.34798566  0.58004144     1.36870
C792        C  0.57607943  0.30625909  0.51687461     0.77560
O793        O  0.54419482  0.34028279  0.63449194    -0.60880
O794        O  0.54375515  0.34242564  0.52951245    -0.51790
C795        C  0.59749341  0.34833959  0.70368755     0.70230
O796        O  0.58154998  0.32736247  0.67223024    -0.46650
C797        C  0.62060792  0.38988686  0.51747830     0.74930
O798        O  0.58357281  0.31153025  0.57648650    -0.58510
O799        O  0.60002004  0.38972824  0.53297985    -0.48600
O800        O  0.57017544  0.32186908  0.48950393    -0.54940
C801        C  0.53083116  0.33696052  0.58219467     0.85110
O802        O  0.60319028  0.36983990  0.67375759    -0.56830
O803        O  0.62085980  0.36955814  0.53635430    -0.60130
In804      In  0.68526676  0.44894335  0.41351324     1.36870
C805        C  0.72997412  0.46055048  0.47420007     0.77560
O806        O  0.69182116  0.48458786  0.35210811    -0.60880
O807        O  0.69078917  0.48619508  0.45720505    -0.51790
C808        C  0.68667396  0.42153708  0.31071042     0.70230
O809        O  0.70292553  0.43069522  0.35817377    -0.46650
C810        C  0.64294773  0.41143705  0.48029599     0.74930
O811        O  0.72871549  0.46485461  0.41309464    -0.58510
O812        O  0.64218344  0.42935931  0.44664362    -0.48600
O813        O  0.70896863  0.45281465  0.50590515    -0.54940
C814        C  0.69555566  0.99859851  0.40271055     0.85110
O815        O  0.66894254  0.42734713  0.31282881    -0.56830
O816        O  0.66474013  0.41278828  0.47871314    -0.60130
C817        C  0.68860687  0.40449036  0.26035901    -0.05480
C818        C  0.67292336  0.39623838  0.20223577    -0.32910
C819        C  0.67392801  0.37858037  0.15747372     0.36340
C820        C  0.69053758  0.36818574  0.17107265    -0.05840
C821        C  0.70568030  0.37662383  0.23071649    -0.32810
C822        C  0.70565152  0.39494992  0.27296200     0.36240
H823        H  0.65955735  0.40318848  0.19172788     0.16610
O824        O  0.65762465  0.37079496  0.10237592    -0.60310
H825        H  0.71712347  0.36817328  0.24768083     0.16630
O826        O  0.72188418  0.40250035  0.32838542    -0.60410
H827        H  0.71181095  0.38837123  0.36215528     0.43620
H828        H  0.66474100  0.38693175  0.07358465     0.43580
C829        C  0.65263484  0.34632652  0.83125855    -0.05480
C830        C  0.65049106  0.36903712  0.83593067    -0.32910
C831        C  0.63072171  0.37013267  0.79870304     0.36340
C832        C  0.61094491  0.34709890  0.76550149    -0.05840
C833        C  0.60812284  0.32255474  0.78278557    -0.32810
C834        C  0.62877452  0.32191345  0.81585290     0.36240
H835        H  0.66664463  0.38736194  0.85699941     0.16610
O836        O  0.63283099  0.39427194  0.78877543    -0.60310
H837        H  0.59151746  0.30401636  0.76373256     0.16630
O838        O  0.62603562  0.29762069  0.82951041    -0.60410
H839        H  0.62217154  0.28821530  0.78642328     0.43620
H840        H  0.62126052  0.39486259  0.82258370     0.43580
C841        C  0.68397863  0.34765183  0.91478074    -0.05480
C842        C  0.67006493  0.32304795  0.94898577    -0.32910
C843        C  0.67147801  0.32119431  0.01820439     0.36340
C844        C  0.68425098  0.34461133  0.05738240    -0.05840
C845        C  0.69773412  0.36934019  0.02348850    -0.32810
C846        C  0.69737725  0.37112465  0.95399102     0.36240
H847        H  0.65820768  0.30463431  0.92199888     0.16610
O848        O  0.66104486  0.29629984  0.04664939    -0.60310
H849        H  0.70874825  0.38777855  0.05105630     0.16630
O850        O  0.70909078  0.39612570  0.92568778    -0.60410
H851        H  0.72844933  0.40403471  0.93167022     0.43620
H852        H  0.64244850  0.28525557  0.03036946     0.43580
C853        C  0.75800542  0.34711222  0.20746489    -0.05480
C854        C  0.73672229  0.32209720  0.18729456    -0.32910
C855        C  0.71491725  0.32010873  0.15296154     0.36340
C856        C  0.71432909  0.34360909  0.14026831    -0.05840
C857        C  0.73911711  0.36806238  0.14124630    -0.32810
C858        C  0.76062343  0.37009497  0.17716811     0.36240
H859        H  0.73541648  0.30393427  0.20487066     0.16610
O860        O  0.69371056  0.29527917  0.13667005    -0.60310
H861        H  0.74055605  0.38635496  0.12453413     0.16630
O862        O  0.78244646  0.39490255  0.18961636    -0.60410
H863        H  0.79562617  0.39730943  0.15636669     0.43620
H864        H  0.68872757  0.28417532  0.17776046     0.43580
C865        C  0.74519561  0.41067114  0.72070421    -0.05480
C866        C  0.75034852  0.39643866  0.76865002    -0.32910
C867        C  0.73010342  0.37823167  0.81147546     0.36340
C868        C  0.70398782  0.37364900  0.80560094    -0.05840
C869        C  0.70040524  0.39013160  0.76027871    -0.32810
C870        C  0.72072750  0.40892786  0.72068529     0.36240
H871        H  0.76938399  0.39804036  0.77010853     0.16610
O872        O  0.73563298  0.36406228  0.85690538    -0.60310
H873        H  0.68143265  0.38729981  0.74822820     0.16630
O874        O  0.71591885  0.42468057  0.67877795    -0.60410
H875        H  0.70426964  0.41273687  0.64262328     0.43620
H876        H  0.74046928  0.35321993  0.83050618     0.43580
C877        C  0.67881411  0.28625304  0.71739955    -0.05480
C878        C  0.67098380  0.30306398  0.69084530    -0.32910
C879        C  0.67139726  0.32269833  0.72928241     0.36340
C880        C  0.67913099  0.32562463  0.79779234    -0.05840
C881        C  0.68808065  0.30900885  0.82315421    -0.32810
C882        C  0.68782734  0.28944388  0.78351543     0.36240
H883        H  0.66528539  0.30157954  0.63870621     0.16610
O884        O  0.66499243  0.33964157  0.69857041    -0.60310
H885        H  0.69653474  0.31175704  0.87262207     0.16630
O886        O  0.69690047  0.27395970  0.80940598    -0.60410
H887        H  0.71621881  0.28422862  0.80107580     0.43620
H888        H  0.64632421  0.32829894  0.68301888     0.43580
C889        C  0.62321869  0.28273104  0.25535705    -0.05480
C890        C  0.61708802  0.29104483  0.19585946    -0.32910
C891        C  0.63729635  0.30935016  0.15329835     0.36340
C892        C  0.66449179  0.31992732  0.17070432    -0.05840
C893        C  0.66976203  0.31245693  0.23377735    -0.32810
C894        C  0.64973390  0.29350029  0.27405566     0.36240
H895        H  0.59658591  0.28390580  0.18317409     0.16610
O896        O  0.63021158  0.31819191  0.09773419    -0.60310
H897        H  0.68972578  0.32179332  0.25363802     0.16630
O898        O  0.65631317  0.28767783  0.33519197    -0.60410
H899        H  0.65885533  0.27260000  0.32734149     0.43620
H900        H  0.61718743  0.30204344  0.07250892     0.43580
C901        C  0.84712805  0.21976930  0.14234063    -0.05480
C902        C  0.86914378  0.24636925  0.14001657    -0.32910
C903        C  0.86984447  0.26565958  0.18166446     0.36340
C904        C  0.84707846  0.25915430  0.21748788    -0.05840
C905        C  0.82292386  0.23652598  0.19825337    -0.32810
C906        C  0.82270373  0.21687219  0.15984323     0.36240
H907        H  0.88729258  0.25075703  0.11667485     0.16610
O908        O  0.89345229  0.28906952  0.19314578    -0.60310
H909        H  0.80445894  0.23252257  0.21886629     0.16630
O910        O  0.79883510  0.19486489  0.14128524    -0.60410
H911        H  0.78930996  0.18638399  0.18312072     0.43620
H912        H  0.89298141  0.30242227  0.16334388     0.43580
C913        C  0.90668066  0.25377878  0.73996632    -0.05480
C914        C  0.91314376  0.24272723  0.79397445    -0.32910
C915        C  0.89310671  0.22104579  0.83015391     0.36340
C916        C  0.86640515  0.20790087  0.80683088    -0.05840
C917        C  0.86026012  0.22251551  0.76071411    -0.32810
C918        C  0.88000211  0.24490249  0.72725457     0.36240
H919        H  0.93371998  0.24998549  0.80595452     0.16610
O920        O  0.90018289  0.21070100  0.88251536    -0.60310
H921        H  0.84013528  0.21640262  0.74744797     0.16630
O922        O  0.87284160  0.25631168  0.67759464    -0.60410
H923        H  0.86968576  0.24535342  0.63754691     0.43620
H924        H  0.90161933  0.22149098  0.92148955     0.43580
C925        C  0.84287497  0.18166564  0.90971991    -0.05480
C926        C  0.84245388  0.16283661  0.95490324    -0.32910
C927        C  0.84167469  0.16526446  0.02399770     0.36340
C928        C  0.84554962  0.18911321  0.05200381    -0.05840
C929        C  0.84496865  0.20745588  0.00639387    -0.32810
C930        C  0.84302136  0.20368352  0.93757886     0.36240
H931        H  0.84264796  0.14569087  0.93813422     0.16610
O932        O  0.83856759  0.14455638  0.06385343    -0.60310
H933        H  0.84614381  0.22542782  0.02244565     0.16630
O934        O  0.84133755  0.22197321  0.89782144    -0.60410
H935        H  0.85892676  0.23878383  0.90134392     0.43620
H936        H  0.82199172  0.12826915  0.04852672     0.43580
C937        C  0.91589960  0.19738630  0.23980545    -0.05480
C938        C  0.90598713  0.18181418  0.18268513    -0.32910
C939        C  0.88920085  0.18494627  0.13778053     0.36340
C940        C  0.87806406  0.20054959  0.15487746    -0.05840
C941        C  0.89155510  0.21840638  0.20859081    -0.32810
C942        C  0.91027792  0.21737947  0.24899674     0.36240
H943        H  0.91232438  0.16814857  0.17103035     0.16610
O944        O  0.88775881  0.17608620  0.07467801    -0.60310
H945        H  0.88595796  0.23164581  0.22727249     0.16630
O946        O  0.92027715  0.23400163  0.30298623    -0.60410
H947        H  0.93583256  0.25076975  0.28609966     0.43620
H948        H  0.90062712  0.19211027  0.04883034     0.43580
C949        C  0.85078338  0.15735248  0.81470145    -0.05480
C950        C  0.87459625  0.16365947  0.78321748    -0.32910
C951        C  0.87670569  0.14474803  0.74756924     0.36340
C952        C  0.85473258  0.11867429  0.74087319    -0.05840
C953        C  0.83227863  0.11100246  0.77892857    -0.32810
C954        C  0.83033892  0.12973766  0.81666869     0.36240
H955        H  0.89138461  0.18357722  0.77910818     0.16610
O956        O  0.89963835  0.15288552  0.71386690    -0.60310
H957        H  0.81520216  0.09083179  0.77535386     0.16630
O958        O  0.80680164  0.12154719  0.84749833    -0.60410
H959        H  0.80510454  0.10873448  0.88270854     0.43620
H960        H  0.89842980  0.16186709  0.67289215     0.43580
C961        C  0.77426824  0.16498068  0.71948363    -0.05480
C962        C  0.79301386  0.16105821  0.69058717    -0.32910
C963        C  0.81494491  0.16490549  0.72679211     0.36340
C964        C  0.81781871  0.17108986  0.79597019    -0.05840
C965        C  0.79669982  0.17151908  0.82636032    -0.32810
C966        C  0.77567583  0.16963497  0.78797176     0.36240
H967        H  0.79216316  0.15770553  0.63745624     0.16610
O968        O  0.83436270  0.16425724  0.69265822    -0.60310
H969        H  0.79692843  0.17494577  0.87893702     0.16630
O970        O  0.75754576  0.17385169  0.81707764    -0.60410
H971        H  0.74296216  0.15586578  0.83101431     0.43620
H972        H  0.84388561  0.18134060  0.66742313     0.43580
C973        C  0.78927946  0.12939915  0.25412201    -0.05480
C974        C  0.81142060  0.15153885  0.28213602    -0.32910
C975        C  0.82962532  0.17282203  0.24334636     0.36340
C976        C  0.82814237  0.17149998  0.17245887    -0.05840
C977        C  0.80424294  0.14967052  0.14508639    -0.32810
C978        C  0.78500952  0.12888184  0.18529487     0.36240
H979        H  0.81402752  0.15308751  0.33580036     0.16610
O980        O  0.84747162  0.19548705  0.27674443    -0.60310
H981        H  0.79949226  0.14909786  0.09277654     0.16630
O982        O  0.76258603  0.10803901  0.15669102    -0.60410
H983        H  0.74962881  0.11382139  0.15494919     0.43620
H984        H  0.83775045  0.20433905  0.28806613     0.43580
In985      In  0.74571755  0.57945972  0.40633242     1.36870
C986        C  0.78130222  0.57377569  0.47349426     0.77560
O987        O  0.76064346  0.61649330  0.46365617    -0.60880
O988        O  0.72007075  0.59636332  0.43527926    -0.51790
C989        C  0.77170633  0.60822427  0.30090959     0.70230
O990        O  0.78167279  0.60151704  0.34699137    -0.46650
C991        C  0.70883718  0.52781369  0.40065254     0.74930
O992        O  0.77634367  0.56831993  0.41259912    -0.58510
O993        O  0.71446084  0.54119744  0.45317804    -0.48600
O994        O  0.76685238  0.58049368  0.50133192    -0.54940
C995        C  0.73940715  0.61626300  0.46396401     0.85110
O996        O  0.74690787  0.59795442  0.30425927    -0.56830
O997        O  0.71915738  0.54150124  0.34877501    -0.60130
In998      In  0.74261386  0.67977015  0.55768181     1.36870
C999        C  0.78349624  0.72227104  0.49957529     0.77560
O1000       O  0.76029218  0.65911714  0.51165746    -0.60880
O1001       O  0.71821658  0.63837303  0.50957740    -0.51790
C1002       C  0.75830158  0.67023262  0.67268287     0.70230
O1003       O  0.76718253  0.69351848  0.65026128    -0.46650
C1004       C  0.70629590  0.69331843  0.56064954     0.74930
O1005       O  0.78049685  0.72030668  0.56159120    -0.58510
O1006       O  0.71304882  0.68767011  0.50761704    -0.48600
O1007       O  0.76518596  0.70305404  0.46712001    -0.54940
C1008       C  0.73885838  0.63830929  0.49532914     0.85110
O1009       O  0.73858773  0.65186958  0.64130116    -0.56830
O1010       O  0.71535344  0.68863765  0.61272951    -0.60130
In1011     In  0.84694521  0.58002803  0.56593889     1.36870
C1012       C  0.80354883  0.57433623  0.50756856     0.77560
O1013       O  0.86542001  0.61740327  0.50498497    -0.60880
O1014       O  0.88891871  0.60068726  0.52670935    -0.51790
C1015       C  0.85277351  0.60199545  0.68406155     0.70230
O1016       O  0.83071849  0.58334499  0.66216383    -0.46650
C1017       C  0.83762290  0.53059723  0.56861468     0.74930
O1018       O  0.81020983  0.58218134  0.56643241    -0.58510
O1019       O  0.84343333  0.54448455  0.51646223    -0.48600
O1020       O  0.81857331  0.56866078  0.47897851    -0.54980
C1021       C  0.88729311  0.61912576  0.49840428     0.85110
O1022       O  0.87231226  0.60719536  0.64873460    -0.56830
O1023       O  0.83953119  0.54289790  0.62098303    -0.60130
In1024     In  0.94887542  0.68596407  0.40858667     1.36870
C1025       C  0.95302679  0.72588660  0.47855592     0.77560
O1026       O  0.90765909  0.66160865  0.44551214    -0.60880
O1027       O  0.93069519  0.64362598  0.44919395    -0.51790
C1028       C  0.93055029  0.69252223  0.29283516     0.70230
O1029       O  0.94724469  0.71130324  0.32900536    -0.46650
C1030       C  0.49776564  0.69535326  0.41080736     0.74930
O1031       O  0.96049135  0.72853506  0.41948692    -0.58510
O1032       O  0.98551485  0.69378186  0.46249217    -0.48600
O1033       O  0.94454434  0.70307069  0.50366403    -0.54940
C1034       C  0.90910509  0.64177322  0.46290443     0.85110
O1035       O  0.92534328  0.66959105  0.31130792    -0.56830
O1036       O  0.98390848  0.68857727  0.35808983    -0.60130
C1037       C  0.84454556  0.67942534  0.83293961    -0.02510
C1038       C  0.84988952  0.69513039  0.12877262    -0.02510
In1039     In  0.95056374  0.78585108  0.57293710     1.36870
C1040       C  0.95305835  0.74739222  0.51338603     0.77560
O1041       O  0.91359380  0.76767538  0.51104621    -0.60880
O1042       O  0.93280517  0.80926379  0.52996015    -0.51790
C1043       C  0.92607765  0.76910800  0.68775135     0.70230
O1044       O  0.94144198  0.76212959  0.66723964    -0.46650
C1045       C  0.50187305  0.82336508  0.58152640     0.74930
O1046       O  0.94523213  0.74506141  0.57213003    -0.58510
O1047       O  0.48864327  0.81858875  0.52837044    -0.48600
O1048       O  0.95992210  0.76939478  0.48558909    -0.54940
C1049       C  0.91343509  0.78882868  0.50296110     0.85110
O1050       O  0.92584204  0.78723524  0.65359894    -0.56830
O1051       O  0.98825205  0.81189385  0.63212303    -0.60130
In1052     In  0.84903236  0.78512464  0.40756819     1.36870
C1053       C  0.80672216  0.74471810  0.46758410     0.77560
O1054       O  0.87166461  0.76705756  0.44668471    -0.60880
O1055       O  0.89032600  0.80907023  0.45494058    -0.51790
C1056       C  0.84842830  0.77132371  0.28229113     0.70230
O1057       O  0.82789946  0.76318750  0.31612193    -0.46650
C1058       C  0.83805189  0.82334552  0.40708155     0.74930
O1059       O  0.81046599  0.74541795  0.40611497    -0.58510
O1060       O  0.83891524  0.81182013  0.45937601    -0.48600
O1061       O  0.82470481  0.76457185  0.49905300    -0.54940
C1062       C  0.89149617  0.78858655  0.46687471     0.85110
O1063       O  0.86981993  0.78808657  0.31169181    -0.56830
O1064       O  0.84626505  0.81804660  0.35616695    -0.60130
In1065     In  0.57765861  0.74678491  0.41697280     1.36870
C1066       C  0.57542858  0.78439390  0.48183104     0.77560
O1067       O  0.54028871  0.71785139  0.35996780    -0.60880
O1068       O  0.53982864  0.71617482  0.46532587    -0.51790
C1069       C  0.60295215  0.76703162  0.30480684     0.70230
O1070       O  0.59070833  0.77619949  0.33298550    -0.46650
C1071       C  0.61600990  0.74252756  0.47493638     0.74930
O1072       O  0.57063214  0.78069167  0.42033483    -0.58510
O1073       O  0.59436476  0.72190611  0.45721296    -0.48600
O1074       O  0.58062252  0.76842706  0.51051318    -0.54940
C1075       C  0.52667513  0.70879187  0.41173607     0.85110
O1076       O  0.59953782  0.74555803  0.32925670    -0.56830
O1077       O  0.61714300  0.76425657  0.46499464    -0.60130
In1078     In  0.68250972  0.74715481  0.55805719     1.36870
C1079       C  0.72380443  0.78499313  0.49171588     0.77560
O1080       O  0.68996293  0.71789675  0.61318924    -0.60880
O1081       O  0.68738260  0.71620434  0.50795170    -0.51790
C1082       C  0.68137974  0.76922651  0.67004401     0.70230
O1083       O  0.70186598  0.77841492  0.63576539    -0.46650
C1084       C  0.63899447  0.74260891  0.50359754     0.74930
O1085       O  0.72517783  0.77985574  0.55219789    -0.58510
O1086       O  0.63918395  0.72213461  0.52290117    -0.48600
O1087       O  0.70157627  0.76994247  0.46390748    -0.54940
C1088       C  0.69298965  0.70839592  0.56089712     0.85110
O1089       O  0.66211146  0.74676645  0.65188502    -0.56830
O1090       O  0.66069670  0.76432603  0.51089280    -0.60130
In1091     In  0.78786284  0.95054933  0.55576230     1.36870
C1092       C  0.75265240  0.96063870  0.50358834     0.77560
O1093       O  0.81496967  0.98686977  0.61684836    -0.60880
O1094       O  0.81919846  0.48938134  0.51181653    -0.51790
C1095       C  0.76235566  0.92375121  0.66312853     0.70230
O1096       O  0.75182803  0.92259052  0.60743271    -0.46650
C1097       C  0.79225852  0.91426486  0.48903246     0.74930
O1098       O  0.75484561  0.95811591  0.56515341    -0.58510
O1099       O  0.81100331  0.93113123  0.52590905    -0.48600
O1100       O  0.76976440  0.96006160  0.46878430    -0.54940
C1101       C  0.82492714  0.50157472  0.56630191     0.85110
O1102       O  0.78747847  0.93734716  0.66410515    -0.56830
O1103       O  0.77258611  0.91677513  0.48568820    -0.60130
In1104     In  0.78665334  0.84924544  0.39671420     1.36870
C1105       C  0.74611730  0.80742085  0.45752418     0.77560
O1106       O  0.81891370  0.84546726  0.35069151    -0.60880
O1107       O  0.81264425  0.83897043  0.45440002    -0.51790
C1108       C  0.77213066  0.84864078  0.27059274     0.70230
O1109       O  0.76675154  0.82784117  0.30295982    -0.46650
C1110       C  0.79165824  0.89219655  0.45451580     0.74930
O1111       O  0.74470563  0.81362065  0.39811849    -0.58510
O1112       O  0.81164252  0.89063343  0.44362340    -0.48600
O1113       O  0.76808418  0.82254298  0.48593566    -0.54940
C1114       C  0.82405838  0.83758151  0.40428224     0.85110
O1115       O  0.78747867  0.87028603  0.30087908    -0.56830
O1116       O  0.77004761  0.87263363  0.43400069    -0.60130
C1117       C  0.67998434  0.84845227  0.83860220    -0.02510
C1118       C  0.68807114  0.84382946  0.13344958    -0.02510
In1119     In  0.58055405  0.84798566  0.58004146     1.36870
C1120       C  0.57607944  0.80625910  0.51687462     0.77560
O1121       O  0.54419483  0.84028281  0.63449195    -0.60880
O1122       O  0.54375516  0.84242565  0.52951247    -0.51790
C1123       C  0.59749342  0.84833960  0.70368758     0.70230
O1124       O  0.58154998  0.82736247  0.67223027    -0.46650
C1125       C  0.62060793  0.88988686  0.51747832     0.74930
O1126       O  0.58357281  0.81153025  0.57648652    -0.58510
O1127       O  0.60002005  0.88972825  0.53297986    -0.48600
O1128       O  0.57017546  0.82186909  0.48950394    -0.54940
C1129       C  0.53083117  0.83696053  0.58219469     0.85110
O1130       O  0.60319029  0.86983990  0.67375762    -0.56830
O1131       O  0.62085981  0.86955814  0.53635433    -0.60130
In1132     In  0.68526676  0.94894335  0.41351324     1.36870
C1133       C  0.72997412  0.96055047  0.47420008     0.77560
O1134       O  0.69182115  0.98458785  0.35210811    -0.60880
O1135       O  0.69078917  0.98619507  0.45720506    -0.51790
C1136       C  0.68667396  0.92153708  0.31071041     0.70230
O1137       O  0.70292557  0.93069527  0.35817368    -0.46650
C1138       C  0.64294775  0.91143706  0.48029600     0.74930
O1139       O  0.72871549  0.96485461  0.41309466    -0.58510
O1140       O  0.64218345  0.92935931  0.44664364    -0.48600
O1141       O  0.70896862  0.95281463  0.50590515    -0.54940
C1142       C  0.69555567  0.49859851  0.40271055     0.85110
O1143       O  0.66894252  0.92734709  0.31282886    -0.56830
O1144       O  0.66474014  0.91278828  0.47871313    -0.60130
C1145       C  0.68860686  0.90449035  0.26035902    -0.05480
C1146       C  0.67292336  0.89623838  0.20223577    -0.32910
C1147       C  0.67392802  0.87858037  0.15747372     0.36340
C1148       C  0.69053759  0.86818573  0.17107267    -0.05840
C1149       C  0.70568029  0.87662381  0.23071652    -0.32810
C1150       C  0.70565151  0.89494990  0.27296204     0.36240
H1151       H  0.65955736  0.90318848  0.19172786     0.16610
O1152       O  0.65762467  0.87079496  0.10237590    -0.60310
H1153       H  0.71712346  0.86817326  0.24768087     0.16630
O1154       O  0.72188415  0.90250032  0.32838549    -0.60410
H1155       H  0.71181089  0.88837120  0.36215534     0.43620
H1156       H  0.66474102  0.88693176  0.07358465     0.43580
C1157       C  0.65263484  0.84632652  0.83125857    -0.05480
C1158       C  0.65049106  0.86903712  0.83593069    -0.32910
C1159       C  0.63072172  0.87013267  0.79870306     0.36340
C1160       C  0.61094492  0.84709890  0.76550152    -0.05840
C1161       C  0.60812284  0.82255474  0.78278561    -0.32810
C1162       C  0.62877452  0.82191345  0.81585294     0.36240
H1163       H  0.66664464  0.88736194  0.85699941     0.16610
O1164       O  0.63283100  0.89427195  0.78877544    -0.60310
H1165       H  0.59151746  0.80401637  0.76373261     0.16630
O1166       O  0.62603561  0.79762069  0.82951045    -0.60410
H1167       H  0.62217153  0.78821530  0.78642333     0.43620
H1168       H  0.62126054  0.89486260  0.82258371     0.43580
C1169       C  0.68397863  0.84765182  0.91478075    -0.05480
C1170       C  0.67006494  0.82304795  0.94898578    -0.32910
C1171       C  0.67147802  0.82119431  0.01820440     0.36340
C1172       C  0.68425099  0.84461133  0.05738241    -0.05840
C1173       C  0.69773413  0.86934018  0.02348851    -0.32810
C1174       C  0.69737726  0.87112465  0.95399102     0.36240
H1175       H  0.65820769  0.80463431  0.92199889     0.16610
O1176       O  0.66104487  0.79629983  0.04664940    -0.60310
H1177       H  0.70874826  0.88777855  0.05105630     0.16630
O1178       O  0.70909078  0.89612570  0.92568778    -0.60410
H1179       H  0.72844933  0.90403471  0.93167022     0.43620
H1180       H  0.64244851  0.78525557  0.03036948     0.43580
C1181       C  0.75800544  0.84711223  0.20746489    -0.05480
C1182       C  0.73672232  0.82209722  0.18729454    -0.32910
C1183       C  0.71491727  0.82010875  0.15296151     0.36340
C1184       C  0.71432911  0.84360910  0.14026832    -0.05840
C1185       C  0.73911712  0.86806240  0.14124634    -0.32810
C1186       C  0.76062344  0.87009499  0.17716814     0.36240
H1187       H  0.73541651  0.80393428  0.20487062     0.16610
O1188       O  0.69371059  0.79527918  0.13667001    -0.60310
H1189       H  0.74055605  0.88635497  0.12453418     0.16630
O1190       O  0.78244647  0.89490256  0.18961640    -0.60410
H1191       H  0.79562618  0.89730946  0.15636673     0.43620
H1192       H  0.68872760  0.78417532  0.17776040     0.43580
C1193       C  0.74519560  0.91067113  0.72070419    -0.05480
C1194       C  0.75034852  0.89643866  0.76865002    -0.32910
C1195       C  0.73010342  0.87823166  0.81147547     0.36340
C1196       C  0.70398782  0.87364900  0.80560094    -0.05840
C1197       C  0.70040523  0.89013159  0.76027868    -0.32810
C1198       C  0.72072749  0.90892784  0.72068525     0.36240
H1199       H  0.76938399  0.89804036  0.77010854     0.16610
O1200       O  0.73563298  0.86406228  0.85690539    -0.60310
H1201       H  0.68143264  0.88729979  0.74822817     0.16630
O1202       O  0.71591883  0.92468054  0.67877788    -0.60410
H1203       H  0.70426963  0.91273684  0.64262322     0.43620
H1204       H  0.74046929  0.85321994  0.83050621     0.43580
C1205       C  0.67881411  0.78625304  0.71739956    -0.05480
C1206       C  0.67098378  0.80306396  0.69084531    -0.32910
C1207       C  0.67139725  0.82269831  0.72928243     0.36340
C1208       C  0.67913098  0.82562462  0.79779235    -0.05840
C1209       C  0.68808066  0.80900885  0.82315421    -0.32810
C1210       C  0.68782735  0.78944388  0.78351544     0.36240
H1211       H  0.66528536  0.80157952  0.63870623     0.16610
O1212       O  0.66499240  0.83964155  0.69857043    -0.60310
H1213       H  0.69653475  0.81175705  0.87262207     0.16630
O1214       O  0.69690050  0.77395971  0.80940597    -0.60410
H1215       H  0.71621883  0.78422864  0.80107578     0.43620
H1216       H  0.64632419  0.82829892  0.68301890     0.43580
C1217       C  0.62321870  0.78273104  0.25535705    -0.05480
C1218       C  0.61708803  0.79104484  0.19585947    -0.32910
C1219       C  0.63729637  0.80935016  0.15329836     0.36340
C1220       C  0.66449180  0.81992731  0.17070432    -0.05840
C1221       C  0.66976205  0.81245691  0.23377733    -0.32810
C1222       C  0.64973392  0.79350028  0.27405564     0.36240
H1223       H  0.59658593  0.78390582  0.18317411     0.16610
O1224       O  0.63021159  0.81819192  0.09773421    -0.60310
H1225       H  0.68972579  0.82179330  0.25363800     0.16630
O1226       O  0.65631318  0.78767781  0.33519195    -0.60410
H1227       H  0.65885533  0.77259998  0.32734145     0.43620
H1228       H  0.61718744  0.80204345  0.07250894     0.43580
C1229       C  0.84712806  0.71976932  0.14234062    -0.05480
C1230       C  0.86914380  0.74636927  0.14001659    -0.32910
C1231       C  0.86984449  0.76565960  0.18166449     0.36340
C1232       C  0.84707848  0.75915432  0.21748788    -0.05840
C1233       C  0.82292388  0.73652602  0.19825333    -0.32810
C1234       C  0.82270374  0.71687222  0.15984319     0.36240
H1235       H  0.88729260  0.75075705  0.11667490     0.16610
O1236       O  0.89345232  0.78906953  0.19314584    -0.60310
H1237       H  0.80445895  0.73252261  0.21886625     0.16630
O1238       O  0.79883511  0.69486493  0.14128518    -0.60410
H1239       H  0.78930997  0.68638403  0.18312066     0.43620
H1240       H  0.89298145  0.80242229  0.16334395     0.43580
C1241       C  0.90668065  0.75377877  0.73996632    -0.05480
C1242       C  0.91314375  0.74272722  0.79397446    -0.32910
C1243       C  0.89310670  0.72104578  0.83015392     0.36340
C1244       C  0.86640514  0.70790087  0.80683090    -0.05840
C1245       C  0.86026011  0.72251550  0.76071412    -0.32810
C1246       C  0.88000210  0.74490247  0.72725457     0.36240
H1247       H  0.93371997  0.74998547  0.80595453     0.16610
O1248       O  0.90018288  0.71070100  0.88251538    -0.60310
H1249       H  0.84013527  0.71640262  0.74744797     0.16630
O1250       O  0.87284160  0.75631166  0.67759463    -0.60410
H1251       H  0.86968576  0.74535341  0.63754691     0.43620
H1252       H  0.90161932  0.72149098  0.92148957     0.43580
C1253       C  0.84287496  0.68166563  0.90971992    -0.05480
C1254       C  0.84245387  0.66283661  0.95490326    -0.32910
C1255       C  0.84167470  0.66526447  0.02399773     0.36340
C1256       C  0.84554961  0.68911322  0.05200382    -0.05840
C1257       C  0.84496863  0.70745589  0.00639387    -0.32810
C1258       C  0.84302135  0.70368352  0.93757886     0.36240
H1259       H  0.84264796  0.64569088  0.93813425     0.16610
O1260       O  0.83856761  0.64455641  0.06385347    -0.60310
H1261       H  0.84614379  0.72542783  0.02244564     0.16630
O1262       O  0.84133753  0.72197320  0.89782143    -0.60410
H1263       H  0.85892674  0.73878382  0.90134391     0.43620
H1264       H  0.82199175  0.62826917  0.04852678     0.43580
C1265       C  0.91589958  0.69738628  0.23980544    -0.05480
C1266       C  0.90598713  0.68181419  0.18268507    -0.32910
C1267       C  0.88920086  0.68494630  0.13778048     0.36340
C1268       C  0.87806405  0.70054960  0.15487747    -0.05840
C1269       C  0.89155508  0.71840637  0.20859087    -0.32810
C1270       C  0.91027789  0.71737944  0.24899680     0.36240
H1271       H  0.91232439  0.66814859  0.17103024     0.16610
O1272       O  0.88775885  0.67608628  0.07467792    -0.60310
H1273       H  0.88595794  0.73164580  0.22727255     0.16630
O1274       O  0.92027711  0.73400157  0.30298634    -0.60410
H1275       H  0.93583251  0.75076971  0.28609982     0.43620
H1276       H  0.90062715  0.69211037  0.04883032     0.43580
C1277       C  0.85078337  0.65735247  0.81470147    -0.05480
C1278       C  0.87459624  0.66365946  0.78321750    -0.32910
C1279       C  0.87670568  0.64474803  0.74756927     0.36340
C1280       C  0.85473257  0.61867429  0.74087321    -0.05840
C1281       C  0.83227862  0.61100245  0.77892859    -0.32810
C1282       C  0.83033891  0.62973766  0.81666872     0.36240
H1283       H  0.89138460  0.68357722  0.77910821     0.16610
O1284       O  0.89963834  0.65288552  0.71386692    -0.60310
H1285       H  0.81520215  0.59083178  0.77535388     0.16630
O1286       O  0.80680163  0.62154719  0.84749835    -0.60410
H1287       H  0.80510453  0.60873448  0.88270858     0.43620
H1288       H  0.89842979  0.66186708  0.67289217     0.43580
C1289       C  0.77426824  0.66498068  0.71948363    -0.05480
C1290       C  0.79301385  0.66105821  0.69058717    -0.32910
C1291       C  0.81494491  0.66490549  0.72679212     0.36340
C1292       C  0.81781870  0.67108986  0.79597020    -0.05840
C1293       C  0.79669981  0.67151907  0.82636033    -0.32810
C1294       C  0.77567582  0.66963496  0.78797176     0.36240
H1295       H  0.79216316  0.65770553  0.63745624     0.16610
O1296       O  0.83436270  0.66425723  0.69265823    -0.60310
H1297       H  0.79692841  0.67494575  0.87893703     0.16630
O1298       O  0.75754574  0.67385168  0.81707763    -0.60410
H1299       H  0.74296214  0.65586577  0.83101428     0.43620
H1300       H  0.84388561  0.68134059  0.66742314     0.43580
C1301       C  0.78927946  0.62939917  0.25412202    -0.05480
C1302       C  0.81142059  0.65153888  0.28213604    -0.32910
C1303       C  0.82962531  0.67282206  0.24334637     0.36340
C1304       C  0.82814237  0.67150000  0.17245888    -0.05840
C1305       C  0.80424294  0.64967053  0.14508640    -0.32810
C1306       C  0.78500953  0.62888185  0.18529488     0.36240
H1307       H  0.81402750  0.65308755  0.33580037     0.16610
O1308       O  0.84747159  0.69548709  0.27674443    -0.60310
H1309       H  0.79949226  0.64909787  0.09277654     0.16630
O1310       O  0.76258604  0.60803902  0.15669103    -0.60410
H1311       H  0.74962882  0.61382138  0.15494917     0.43620
H1312       H  0.83775039  0.70433907  0.28806614     0.43580
loop_ 
_geom_bond_atom_site_label_1 
_geom_bond_atom_site_label_2 
_geom_bond_distance 
_geom_bond_site_symmetry_2 
_ccdc_geom_bond_type 
In1           O3   2.208       .  S
In1           O4   2.304       .  S
In1          O12   2.291       .  S
In1           O6   2.192       .  S
In1           O8   2.235       .  S
In1           O9   2.236       .  S
In1          O10   2.246       .  S
In1          O13   2.262       .  S
C2            O8   1.260       .  A
C2           O10   1.262       .  A
C2           C28   1.459       .  S
O3           C11   1.254       .  A
O4           C11   1.265       .  A
C5           O12   1.266       .  A
C5            O6   1.254       .  A
C5          C317   1.469       .  S
C7            O9   1.259       .  A
C7           O13   1.261       .  A
C7          C158   1.467   1_545  S
C11          C24   1.469       .  S
In14         O16   2.206       .  S
In14         O17   2.297       .  S
In14         O25   2.255       .  S
In14         O19   2.222       .  S
In14         O21   2.259       .  S
In14         O22   2.253       .  S
In14         O23   2.253       .  S
In14         O26   2.261       .  S
C15          O21   1.258       .  A
C15          O23   1.260       .  A
C15          C69   1.466       .  S
O16          C24   1.257       .  A
O17          C24   1.267       .  A
C18          O25   1.263       .  A
C18          O19   1.260       .  A
C18         C305   1.462       .  S
C20          O22   1.258       .  A
C20          O26   1.258       .  A
C20         C104   1.467       .  S
In27         O29   2.228       .  S
In27         O30   2.274       .  S
In27         O38   2.246       .  S
In27         O32   2.238       .  S
In27         O34   2.251       .  S
In27         O35   2.240       .  S
In27         O36   2.250       .  S
In27         O39   2.262       .  S
C28          O34   1.256       .  A
C28          O36   1.258       .  A
O29          C37   1.258       .  A
O30          C37   1.264       .  A
C31          O38   1.265       .  A
C31          O32   1.261       .  A
C31         C296   1.482       .  S
C33          O35   1.255       .  A
C33          O39   1.258       .  A
C33         C117   1.461       .  S
C37          C50   1.467       .  S
In40         O42   2.223       .  S
In40         O43   2.275       .  S
In40         O51   2.288       .  S
In40         O45   2.203       .  S
In40         O47   2.235       .  S
In40         O48   2.231       .  S
In40         O49   2.259       .  S
In40         O52   2.266       .  S
C41          O47   1.255       .  A
C41          O49   1.259       .  A
C41          C56   1.457       .  S
O42          C50   1.258       .  A
O43          C50   1.265       .  A
C44          O51   1.266       .  A
C44          O45   1.255       .  A
C44         C281   1.478       .  S
C46         O704   1.256       .  A
C46         O708   1.261       .  A
C46          C91   1.463   1_655  S
O48         C702   1.256       .  A
O52         C702   1.261       .  A
C53         C260   1.573       .  S
C53         C269   1.562       .  S
C53         C293   1.578       .  S
C53         C308   1.566       .  S
C54         C245   1.572       .  S
C54         C272   1.575       .  S
C54         C284   1.606       .  S
C54         C320   1.577       .  S
In55         O57   2.228       .  S
In55         O58   2.281       .  S
In55         O66   2.243       .  S
In55         O60   2.234       .  S
In55         O62   2.251       .  S
In55         O64   2.238       .  S
In55         O67   2.259       .  S
In55        O719   2.251       .  S
C56          O62   1.258       .  A
C56          O64   1.258       .  A
O57          C65   1.258       .  A
O58          C65   1.266       .  A
C59          O66   1.264       .  A
C59          O60   1.261       .  A
C59         C257   1.472       .  S
C61          O63   1.257   1_455  A
C61         O723   1.258   1_455  A
C61         C145   1.465       .  S
O63        In711   2.251       .  S
C65          C78   1.470       .  S
O67         C717   1.258       .  A
In68         O70   2.232       .  S
In68         O71   2.282       .  S
In68         O79   2.267       .  S
In68         O73   2.213       .  S
In68         O75   2.251       .  S
In68         O76   2.236       .  S
In68         O77   2.265       .  S
In68         O80   2.260       .  S
C69          O75   1.257       .  A
C69          O77   1.260       .  A
O70          C78   1.258       .  A
O71          C78   1.262       .  A
C72          O79   1.266       .  A
C72          O73   1.260       .  A
C72         C248   1.479       .  S
C74          O76   1.256       .  A
C74          O80   1.256       .  A
C74         C130   1.458       .  S
In81         O83   2.261       .  S
In81         O84   2.238       .  S
In81         O92   2.239       .  S
In81         O86   2.234       .  S
In81         O88   2.247       .  S
In81         O89   2.288       .  S
In81         O90   2.243       .  S
In81         O93   2.209       .  S
C82          O88   1.260       .  A
C82          O90   1.260       .  A
C82         C136   1.461       .  S
O83          C91   1.259       .  A
O84          C91   1.258       .  A
C85          O92   1.262       .  A
C85          O86   1.259       .  A
C85         C233   1.463       .  S
C87          O89   1.266       .  A
C87          O93   1.258       .  A
C87         C100   1.467       .  S
In94         O96   2.259       .  S
In94         O97   2.248       .  S
In94        O105   2.258       .  S
In94         O99   2.224       .  S
In94        O101   2.237       .  S
In94        O102   2.291       .  S
In94        O103   2.251       .  S
In94        O106   2.211       .  S
C95         O101   1.259       .  A
C95         O103   1.262       .  A
C95         C121   1.461       .  S
O96         C104   1.260       .  A
O97         C104   1.258       .  A
C98         O105   1.263       .  A
C98          O99   1.256       .  A
C98         C221   1.462       .  S
C100        O102   1.265       .  A
C100        O106   1.256       .  A
In107       O109   2.247       .  S
In107       O118   2.296       .  S
In107       O112   2.166       .  S
In107       O114   2.240       .  S
In107       O115   2.296       .  S
In107       O116   2.245       .  S
In107       O119   2.215       .  S
In107       O438   2.233       .  S
C108        O114   1.256       .  A
C108        O116   1.262       .  A
C108        C149   1.456       .  S
O109        C445   1.260       .  A
O110       In435   2.233       .  S
O110        C117   1.259   1_565  A
C111        O118   1.268       .  A
C111        O112   1.255       .  A
C111        C209   1.472       .  S
C113        O115   1.265       .  A
C113        O119   1.253       .  A
C113        C126   1.468       .  S
C117        O437   1.260   1_545  A
In120       O122   2.261       .  S
In120       O123   2.229       .  S
In120       O131   2.259       .  S
In120       O125   2.226       .  S
In120       O127   2.258       .  S
In120       O128   2.289       .  S
In120       O129   2.251       .  S
In120       O132   2.221       .  S
C121        O127   1.257       .  A
C121        O129   1.257       .  A
O122        C130   1.259       .  A
O123        C130   1.255       .  A
C124        O131   1.267       .  A
C124        O125   1.262       .  A
C124        C197   1.483       .  S
C126        O128   1.262       .  A
C126        O132   1.257       .  A
C133        C173   1.565       .  S
C133        C185   1.548       .  S
C133        C212   1.565       .  S
C133        C224   1.565       .  S
C134        C164   1.570       .  S
C134        C188   1.545       .  S
C134        C200   1.569       .  S
C134        C236   1.560       .  S
In135       O137   2.263       .  S
In135       O138   2.252       .  S
In135       O146   2.273       .  S
In135       O140   2.214       .  S
In135       O142   2.248       .  S
In135       O143   2.289       .  S
In135       O144   2.261       .  S
In135       O147   2.228       .  S
C136        O142   1.255       .  A
C136        O144   1.258       .  A
O137        C145   1.257       .  A
O138        C145   1.257       .  A
C139        O146   1.268       .  A
C139        O140   1.261       .  A
C139        C176   1.484       .  S
C141        O143   1.264       .  A
C141        O147   1.256       .  A
C141        C154   1.471       .  S
In148       O150   2.268       .  S
In148       O151   2.234       .  S
In148       O159   2.316       .  S
In148       O153   2.186       .  S
In148       O155   2.233       .  S
In148       O156   2.293       .  S
In148       O157   2.246       .  S
In148       O160   2.229       .  S
C149        O155   1.259       .  A
C149        O157   1.263       .  A
O150        C486   1.262       .  A
O151        C486   1.257       .  A
C152        O159   1.269       .  A
C152        O153   1.250       .  A
C152        C161   1.486       .  S
C154        O156   1.263       .  A
C154        O160   1.255       .  A
C158        O478   1.262       .  A
C158        O479   1.257       .  A
C161        C162   1.401       .  A
C161        C166   1.409       .  A
C162        C163   1.413       .  A
C162        H167   1.083       .  S
C163        C164   1.428       .  A
C163        O168   1.370       .  S
C164        C165   1.413       .  A
C165        C166   1.386       .  A
C165        H169   1.079       .  S
C166        O170   1.374       .  S
O168        H172   0.992       .  S
O170        H171   0.992       .  S
C173        C174   1.413       .  A
C173        C178   1.421       .  A
C174        C175   1.407       .  A
C174        H179   1.082       .  S
C175        C176   1.408       .  A
C175        O180   1.370       .  S
C176        C177   1.402       .  A
C177        C178   1.399       .  A
C177        H181   1.084       .  S
C178        O182   1.375       .  S
O180        H184   0.991       .  S
O182        H183   0.992       .  S
C185        C186   1.408       .  A
C185        C190   1.420       .  A
C186        C187   1.398   1_556  A
C186        H191   1.079       .  S
C187        C188   1.417       .  A
C187        O192   1.374       .  S
C188        C189   1.409       .  A
C189        C190   1.400   1_554  A
C189        H193   1.082       .  S
C190        O194   1.372       .  S
O192        H196   0.992       .  S
O194        H195   0.992       .  S
C197        C198   1.403       .  A
C197        C202   1.406       .  A
C198        C199   1.403       .  A
C198        H203   1.084       .  S
C199        C200   1.421       .  A
C199        O204   1.374       .  S
C200        C201   1.416       .  A
C201        C202   1.403       .  A
C201        H205   1.082       .  S
C202        O206   1.371       .  S
O204        H208   0.992       .  S
O206        H207   0.991       .  S
C209        C210   1.397       .  A
C209        C214   1.402       .  A
C210        C211   1.411       .  A
C210        H215   1.083       .  S
C211        C212   1.429       .  A
C211        O216   1.373       .  S
C212        C213   1.412       .  A
C213        C214   1.385       .  A
C213        H217   1.071       .  S
C214        O218   1.375       .  S
O216        H220   0.992       .  S
O218        H219   0.992       .  S
C221        C222   1.391       .  A
C221        C226   1.400       .  A
C222        C223   1.392       .  A
C222        H227   1.085       .  S
C223        C224   1.427       .  A
C223        O228   1.374       .  S
C224        C225   1.420       .  A
C225        C226   1.406       .  A
C225        H229   1.079       .  S
C226        O230   1.371       .  S
O228        H232   0.992       .  S
O230        H231   0.992       .  S
C233        C234   1.396       .  A
C233        C238   1.397       .  A
C234        C235   1.408       .  A
C234        H239   1.084       .  S
C235        C236   1.428       .  A
C235        O240   1.373       .  S
C236        C237   1.416       .  A
C237        C238   1.388       .  A
C237        H241   1.080       .  S
C238        O242   1.373       .  S
O240        H244   0.992       .  S
O242        H243   0.992       .  S
C245        C246   1.416       .  A
C245        C250   1.420       .  A
C246        C247   1.406       .  A
C246        H251   1.083       .  S
C247        C248   1.408       .  A
C247        O252   1.371       .  S
C248        C249   1.400       .  A
C249        C250   1.397       .  A
C249        H253   1.084       .  S
C250        O254   1.373       .  S
O252        H256   0.991       .  S
O254        H255   0.993       .  S
C257        C258   1.403       .  A
C257        C262   1.401       .  A
C258        C259   1.407       .  A
C258        H263   1.083       .  S
C259        C260   1.421       .  A
C259        O264   1.372       .  S
C260        C261   1.421       .  A
C261        C262   1.392       .  A
C261        H265   1.079       .  S
C262        O266   1.373       .  S
O264        H268   0.992       .  S
O266        H267   0.992       .  S
C269        C270   1.411       .  A
C269        C274   1.417       .  A
C270        C271   1.404   1_556  A
C270        H275   1.076       .  S
C271        C272   1.423       .  A
C271        O276   1.377       .  S
C272        C273   1.418       .  A
C273        C274   1.398   1_554  A
C273        H277   1.078       .  S
C274        O278   1.374       .  S
O276        H280   0.993       .  S
O278        H279   0.992       .  S
C281        C282   1.395       .  A
C281        C286   1.399       .  A
C282        C283   1.411       .  A
C282        H287   1.083       .  S
C283        C284   1.436       .  A
C283        O288   1.365       .  S
C284        C285   1.424       .  A
C285        C286   1.388       .  A
C285        H289   1.072       .  S
C286        O290   1.373       .  S
O288        H292   0.992       .  S
O290        H291   0.992       .  S
C293        C294   1.420       .  A
C293        C298   1.428       .  A
C294        C295   1.396       .  A
C294        H299   1.069       .  S
C295        C296   1.402       .  A
C295        O300   1.373       .  S
C296        C297   1.402       .  A
C297        C298   1.405       .  A
C297        H301   1.084       .  S
C298        O302   1.374       .  S
O300        H304   0.992       .  S
O302        H303   0.992       .  S
C305        C306   1.391       .  A
C305        C310   1.401       .  A
C306        C307   1.389       .  A
C306        H311   1.085       .  S
C307        C308   1.428       .  A
C307        O312   1.373       .  S
C308        C309   1.420       .  A
C309        C310   1.407       .  A
C309        H313   1.078       .  S
C310        O314   1.371       .  S
O312        H316   0.992       .  S
O314        H315   0.992       .  S
C317        C318   1.390       .  A
C317        C322   1.399       .  A
C318        C319   1.386       .  A
C318        H323   1.085       .  S
C319        C320   1.427       .  A
C319        O324   1.366       .  S
C320        C321   1.427       .  A
C321        C322   1.410       .  A
C321        H325   1.079       .  S
C322        O326   1.371       .  S
O324        H328   0.992       .  S
O326        H327   0.992       .  S
In329       O331   2.208       .  S
In329       O332   2.304       .  S
In329       O340   2.291       .  S
In329       O334   2.192       .  S
In329       O336   2.235       .  S
In329       O337   2.236       .  S
In329       O338   2.246       .  S
In329       O341   2.262       .  S
C330        O336   1.260       .  A
C330        O338   1.262       .  A
C330        C356   1.459       .  S
O331        C339   1.254       .  A
O332        C339   1.265       .  A
C333        O340   1.266       .  A
C333        O334   1.254       .  A
C333        C645   1.469       .  S
C335        O337   1.259       .  A
C335        O341   1.261       .  A
C335        C486   1.467       .  S
C339        C352   1.469       .  S
In342       O344   2.206       .  S
In342       O345   2.297       .  S
In342       O353   2.255       .  S
In342       O347   2.222       .  S
In342       O349   2.259       .  S
In342       O350   2.253       .  S
In342       O351   2.253       .  S
In342       O354   2.261       .  S
C343        O349   1.258       .  A
C343        O351   1.260       .  A
C343        C397   1.466       .  S
O344        C352   1.257       .  A
O345        C352   1.267       .  A
C346        O353   1.263       .  A
C346        O347   1.260       .  A
C346        C633   1.462       .  S
C348        O350   1.258       .  A
C348        O354   1.258       .  A
C348        C432   1.467       .  S
In355       O357   2.228       .  S
In355       O358   2.274       .  S
In355       O366   2.246       .  S
In355       O360   2.238       .  S
In355       O362   2.251       .  S
In355       O363   2.240       .  S
In355       O364   2.250       .  S
In355       O367   2.262       .  S
C356        O362   1.256       .  A
C356        O364   1.258       .  A
O357        C365   1.258       .  A
O358        C365   1.264       .  A
C359        O366   1.265       .  A
C359        O360   1.261       .  A
C359        C624   1.482       .  S
C361        O363   1.255       .  A
C361        O367   1.258       .  A
C361        C445   1.461       .  S
C365        C378   1.467       .  S
In368       O370   2.223       .  S
In368       O371   2.275       .  S
In368       O379   2.288       .  S
In368       O373   2.203       .  S
In368       O375   2.235       .  S
In368       O376   2.231       .  S
In368       O377   2.259       .  S
In368       O380   2.266       .  S
C369        O375   1.255       .  A
C369        O377   1.259       .  A
C369        C384   1.457       .  S
O370        C378   1.258       .  A
O371        C378   1.265       .  A
C372        O379   1.266       .  A
C372        O373   1.255       .  A
C372        C609   1.478       .  S
C374       O1032   1.256       .  A
C374       O1036   1.261       .  A
C374        C419   1.463   1_655  S
O376       C1030   1.256       .  A
O380       C1030   1.261       .  A
C381        C588   1.573       .  S
C381        C597   1.562       .  S
C381        C621   1.578       .  S
C381        C636   1.566       .  S
C382        C573   1.572       .  S
C382        C600   1.575       .  S
C382        C612   1.606       .  S
C382        C648   1.577       .  S
In383       O385   2.228       .  S
In383       O386   2.281       .  S
In383       O394   2.243       .  S
In383       O388   2.234       .  S
In383       O390   2.251       .  S
In383      O1047   2.251       .  S
In383       O392   2.238       .  S
In383       O395   2.259       .  S
C384        O390   1.258       .  A
C384        O392   1.258       .  A
O385        C393   1.258       .  A
O386        C393   1.266       .  A
C387        O394   1.264       .  A
C387        O388   1.261       .  A
C387        C585   1.472       .  S
C389        O391   1.257   1_455  A
C389       O1051   1.258   1_455  A
C389        C473   1.465       .  S
O391      In1039   2.251       .  S
C393        C406   1.470       .  S
O395       C1045   1.258       .  A
In396       O398   2.232       .  S
In396       O399   2.282       .  S
In396       O407   2.267       .  S
In396       O401   2.213       .  S
In396       O403   2.251       .  S
In396       O404   2.236       .  S
In396       O405   2.265       .  S
In396       O408   2.260       .  S
C397        O403   1.257       .  A
C397        O405   1.260       .  A
O398        C406   1.258       .  A
O399        C406   1.262       .  A
C400        O407   1.266       .  A
C400        O401   1.260       .  A
C400        C576   1.479       .  S
C402        O404   1.256       .  A
C402        O408   1.256       .  A
C402        C458   1.458       .  S
In409       O411   2.261       .  S
In409       O412   2.238       .  S
In409       O420   2.239       .  S
In409       O414   2.234       .  S
In409       O416   2.247       .  S
In409       O417   2.288       .  S
In409       O418   2.243       .  S
In409       O421   2.209       .  S
C410        O416   1.260       .  A
C410        O418   1.260       .  A
C410        C464   1.461       .  S
O411        C419   1.259       .  A
O412        C419   1.258       .  A
C413        O420   1.262       .  A
C413        O414   1.259       .  A
C413        C561   1.463       .  S
C415        O417   1.266       .  A
C415        O421   1.258       .  A
C415        C428   1.467       .  S
In422       O424   2.259       .  S
In422       O425   2.248       .  S
In422       O433   2.258       .  S
In422       O427   2.224       .  S
In422       O429   2.237       .  S
In422       O430   2.291       .  S
In422       O431   2.251       .  S
In422       O434   2.211       .  S
C423        O429   1.259       .  A
C423        O431   1.262       .  A
C423        C449   1.461       .  S
O424        C432   1.260       .  A
O425        C432   1.258       .  A
C426        O433   1.263       .  A
C426        O427   1.256       .  A
C426        C549   1.462       .  S
C428        O430   1.265       .  A
C428        O434   1.256       .  A
In435       O437   2.247       .  S
In435       O446   2.296       .  S
In435       O440   2.166       .  S
In435       O442   2.240       .  S
In435       O443   2.296       .  S
In435       O444   2.245       .  S
In435       O447   2.215       .  S
C436        O442   1.256       .  A
C436        O444   1.262       .  A
C436        C477   1.456       .  S
O438        C445   1.259       .  A
C439        O446   1.268       .  A
C439        O440   1.255       .  A
C439        C537   1.472       .  S
C441        O443   1.265       .  A
C441        O447   1.253       .  A
C441        C454   1.468       .  S
In448       O450   2.261       .  S
In448       O451   2.229       .  S
In448       O459   2.259       .  S
In448       O453   2.226       .  S
In448       O455   2.258       .  S
In448       O456   2.289       .  S
In448       O457   2.251       .  S
In448       O460   2.221       .  S
C449        O455   1.257       .  A
C449        O457   1.257       .  A
O450        C458   1.259       .  A
O451        C458   1.255       .  A
C452        O459   1.267       .  A
C452        O453   1.262       .  A
C452        C525   1.483       .  S
C454        O456   1.262       .  A
C454        O460   1.257       .  A
C461        C501   1.565       .  S
C461        C513   1.548       .  S
C461        C540   1.565       .  S
C461        C552   1.565       .  S
C462        C492   1.570       .  S
C462        C516   1.545       .  S
C462        C528   1.569       .  S
C462        C564   1.560       .  S
In463       O465   2.263       .  S
In463       O466   2.252       .  S
In463       O474   2.273       .  S
In463       O468   2.214       .  S
In463       O470   2.248       .  S
In463       O471   2.289       .  S
In463       O472   2.261       .  S
In463       O475   2.228       .  S
C464        O470   1.255       .  A
C464        O472   1.258       .  A
O465        C473   1.257       .  A
O466        C473   1.257       .  A
C467        O474   1.268       .  A
C467        O468   1.261       .  A
C467        C504   1.484       .  S
C469        O471   1.264       .  A
C469        O475   1.256       .  A
C469        C482   1.471       .  S
In476       O478   2.268       .  S
In476       O479   2.234       .  S
In476       O487   2.316       .  S
In476       O481   2.186       .  S
In476       O483   2.233       .  S
In476       O484   2.293       .  S
In476       O485   2.246       .  S
In476       O488   2.229       .  S
C477        O483   1.259       .  A
C477        O485   1.263       .  A
C480        O487   1.269       .  A
C480        O481   1.250       .  A
C480        C489   1.486       .  S
C482        O484   1.263       .  A
C482        O488   1.255       .  A
C489        C490   1.401       .  A
C489        C494   1.409       .  A
C490        C491   1.413       .  A
C490        H495   1.083       .  S
C491        C492   1.428       .  A
C491        O496   1.370       .  S
C492        C493   1.413       .  A
C493        C494   1.386       .  A
C493        H497   1.079       .  S
C494        O498   1.374       .  S
O496        H500   0.992       .  S
O498        H499   0.992       .  S
C501        C502   1.413       .  A
C501        C506   1.421       .  A
C502        C503   1.407       .  A
C502        H507   1.082       .  S
C503        C504   1.408       .  A
C503        O508   1.370       .  S
C504        C505   1.402       .  A
C505        C506   1.399       .  A
C505        H509   1.084       .  S
C506        O510   1.375       .  S
O508        H512   0.991       .  S
O510        H511   0.992       .  S
C513        C514   1.408       .  A
C513        C518   1.420       .  A
C514        C515   1.398   1_556  A
C514        H519   1.079       .  S
C515        C516   1.417       .  A
C515        O520   1.374       .  S
C516        C517   1.409       .  A
C517        C518   1.400   1_554  A
C517        H521   1.082       .  S
C518        O522   1.372       .  S
O520        H524   0.992       .  S
O522        H523   0.992       .  S
C525        C526   1.403       .  A
C525        C530   1.406       .  A
C526        C527   1.403       .  A
C526        H531   1.084       .  S
C527        C528   1.421       .  A
C527        O532   1.374       .  S
C528        C529   1.416       .  A
C529        C530   1.403       .  A
C529        H533   1.082       .  S
C530        O534   1.371       .  S
O532        H536   0.992       .  S
O534        H535   0.991       .  S
C537        C538   1.397       .  A
C537        C542   1.402       .  A
C538        C539   1.411       .  A
C538        H543   1.083       .  S
C539        C540   1.429       .  A
C539        O544   1.373       .  S
C540        C541   1.412       .  A
C541        C542   1.385       .  A
C541        H545   1.071       .  S
C542        O546   1.375       .  S
O544        H548   0.992       .  S
O546        H547   0.992       .  S
C549        C550   1.391       .  A
C549        C554   1.400       .  A
C550        C551   1.392       .  A
C550        H555   1.085       .  S
C551        C552   1.427       .  A
C551        O556   1.374       .  S
C552        C553   1.420       .  A
C553        C554   1.406       .  A
C553        H557   1.079       .  S
C554        O558   1.371       .  S
O556        H560   0.992       .  S
O558        H559   0.992       .  S
C561        C562   1.396       .  A
C561        C566   1.397       .  A
C562        C563   1.408       .  A
C562        H567   1.084       .  S
C563        C564   1.428       .  A
C563        O568   1.373       .  S
C564        C565   1.416       .  A
C565        C566   1.388       .  A
C565        H569   1.080       .  S
C566        O570   1.373       .  S
O568        H572   0.992       .  S
O570        H571   0.992       .  S
C573        C574   1.416       .  A
C573        C578   1.420       .  A
C574        C575   1.406       .  A
C574        H579   1.083       .  S
C575        C576   1.408       .  A
C575        O580   1.371       .  S
C576        C577   1.400       .  A
C577        C578   1.397       .  A
C577        H581   1.084       .  S
C578        O582   1.373       .  S
O580        H584   0.991       .  S
O582        H583   0.993       .  S
C585        C586   1.403       .  A
C585        C590   1.401       .  A
C586        C587   1.407       .  A
C586        H591   1.083       .  S
C587        C588   1.421       .  A
C587        O592   1.372       .  S
C588        C589   1.421       .  A
C589        C590   1.392       .  A
C589        H593   1.079       .  S
C590        O594   1.373       .  S
O592        H596   0.992       .  S
O594        H595   0.992       .  S
C597        C598   1.411       .  A
C597        C602   1.417       .  A
C598        C599   1.404   1_556  A
C598        H603   1.076       .  S
C599        C600   1.423       .  A
C599        O604   1.377       .  S
C600        C601   1.418       .  A
C601        C602   1.398   1_554  A
C601        H605   1.078       .  S
C602        O606   1.374       .  S
O604        H608   0.993       .  S
O606        H607   0.992       .  S
C609        C610   1.395       .  A
C609        C614   1.399       .  A
C610        C611   1.411       .  A
C610        H615   1.083       .  S
C611        C612   1.436       .  A
C611        O616   1.365       .  S
C612        C613   1.424       .  A
C613        C614   1.388       .  A
C613        H617   1.072       .  S
C614        O618   1.373       .  S
O616        H620   0.992       .  S
O618        H619   0.992       .  S
C621        C622   1.420       .  A
C621        C626   1.428       .  A
C622        C623   1.396       .  A
C622        H627   1.069       .  S
C623        C624   1.402       .  A
C623        O628   1.373       .  S
C624        C625   1.402       .  A
C625        C626   1.405       .  A
C625        H629   1.084       .  S
C626        O630   1.374       .  S
O628        H632   0.992       .  S
O630        H631   0.992       .  S
C633        C634   1.391       .  A
C633        C638   1.401       .  A
C634        C635   1.389       .  A
C634        H639   1.085       .  S
C635        C636   1.428       .  A
C635        O640   1.373       .  S
C636        C637   1.420       .  A
C637        C638   1.407       .  A
C637        H641   1.078       .  S
C638        O642   1.371       .  S
O640        H644   0.992       .  S
O642        H643   0.992       .  S
C645        C646   1.390       .  A
C645        C650   1.399       .  A
C646        C647   1.386       .  A
C646        H651   1.085       .  S
C647        C648   1.427       .  A
C647        O652   1.366       .  S
C648        C649   1.427       .  A
C649        C650   1.410       .  A
C649        H653   1.079       .  S
C650        O654   1.371       .  S
O652        H656   0.992       .  S
O654        H655   0.992       .  S
In657       O659   2.208       .  S
In657       O660   2.304       .  S
In657       O668   2.291       .  S
In657       O662   2.192       .  S
In657       O664   2.235       .  S
In657       O665   2.236       .  S
In657       O666   2.246       .  S
In657       O669   2.262       .  S
C658        O664   1.260       .  A
C658        O666   1.262       .  A
C658        C684   1.459       .  S
O659        C667   1.254       .  A
O660        C667   1.265       .  A
C661        O668   1.266       .  A
C661        O662   1.254       .  A
C661        C973   1.469       .  S
C663        O665   1.259       .  A
C663        O669   1.261       .  A
C663        C814   1.467   1_545  S
C667        C680   1.469       .  S
In670       O672   2.206       .  S
In670       O673   2.297       .  S
In670       O681   2.255       .  S
In670       O675   2.222       .  S
In670       O677   2.259       .  S
In670       O678   2.253       .  S
In670       O679   2.253       .  S
In670       O682   2.261       .  S
C671        O677   1.258       .  A
C671        O679   1.260       .  A
C671        C725   1.466       .  S
O672        C680   1.257       .  A
O673        C680   1.267       .  A
C674        O681   1.263       .  A
C674        O675   1.260       .  A
C674        C961   1.462       .  S
C676        O678   1.258       .  A
C676        O682   1.258       .  A
C676        C760   1.467       .  S
In683       O685   2.228       .  S
In683       O686   2.274       .  S
In683       O694   2.246       .  S
In683       O688   2.238       .  S
In683       O690   2.251       .  S
In683       O691   2.240       .  S
In683       O692   2.250       .  S
In683       O695   2.262       .  S
C684        O690   1.256       .  A
C684        O692   1.258       .  A
O685        C693   1.258       .  A
O686        C693   1.264       .  A
C687        O694   1.265       .  A
C687        O688   1.261       .  A
C687        C952   1.482       .  S
C689        O691   1.255       .  A
C689        O695   1.258       .  A
C689        C773   1.461       .  S
C693        C706   1.467       .  S
In696       O698   2.223       .  S
In696       O699   2.275       .  S
In696       O707   2.288       .  S
In696       O701   2.203       .  S
In696       O703   2.235       .  S
In696       O704   2.231       .  S
In696       O705   2.259       .  S
In696       O708   2.266       .  S
C697        O703   1.255       .  A
C697        O705   1.259       .  A
C697        C712   1.457       .  S
O698        C706   1.258       .  A
O699        C706   1.265       .  A
C700        O707   1.266       .  A
C700        O701   1.255       .  A
C700        C937   1.478       .  S
C702        C747   1.463       .  S
C709        C916   1.573       .  S
C709        C925   1.562       .  S
C709        C949   1.578       .  S
C709        C964   1.566       .  S
C710        C901   1.572       .  S
C710        C928   1.575       .  S
C710        C940   1.606       .  S
C710        C976   1.577       .  S
In711       O713   2.228       .  S
In711       O714   2.281       .  S
In711       O722   2.243       .  S
In711       O716   2.234       .  S
In711       O718   2.251       .  S
In711       O720   2.238       .  S
In711       O723   2.259       .  S
C712        O718   1.258       .  A
C712        O720   1.258       .  A
O713        C721   1.258       .  A
O714        C721   1.266       .  A
C715        O722   1.264       .  A
C715        O716   1.261       .  A
C715        C913   1.472       .  S
C717        O719   1.257       .  A
C717        C801   1.465       .  S
C721        C734   1.470       .  S
In724       O726   2.232       .  S
In724       O727   2.282       .  S
In724       O735   2.267       .  S
In724       O729   2.213       .  S
In724       O731   2.251       .  S
In724       O732   2.236       .  S
In724       O733   2.265       .  S
In724       O736   2.260       .  S
C725        O731   1.257       .  A
C725        O733   1.260       .  A
O726        C734   1.258       .  A
O727        C734   1.262       .  A
C728        O735   1.266       .  A
C728        O729   1.260       .  A
C728        C904   1.479       .  S
C730        O732   1.256       .  A
C730        O736   1.256       .  A
C730        C786   1.458       .  S
In737       O739   2.261       .  S
In737       O740   2.238       .  S
In737       O748   2.239       .  S
In737       O742   2.234       .  S
In737       O744   2.247       .  S
In737       O745   2.288       .  S
In737       O746   2.243       .  S
In737       O749   2.209       .  S
C738        O744   1.260       .  A
C738        O746   1.260       .  A
C738        C792   1.461       .  S
O739        C747   1.259       .  A
O740        C747   1.258       .  A
C741        O748   1.262       .  A
C741        O742   1.259       .  A
C741        C889   1.463       .  S
C743        O745   1.266       .  A
C743        O749   1.258       .  A
C743        C756   1.467       .  S
In750       O752   2.259       .  S
In750       O753   2.248       .  S
In750       O761   2.258       .  S
In750       O755   2.224       .  S
In750       O757   2.237       .  S
In750       O758   2.291       .  S
In750       O759   2.251       .  S
In750       O762   2.211       .  S
C751        O757   1.259       .  A
C751        O759   1.262       .  A
C751        C777   1.461       .  S
O752        C760   1.260       .  A
O753        C760   1.258       .  A
C754        O761   1.263       .  A
C754        O755   1.256       .  A
C754        C877   1.462       .  S
C756        O758   1.265       .  A
C756        O762   1.256       .  A
In763       O765   2.247       .  S
In763      O1094   2.233       .  S
In763       O774   2.296       .  S
In763       O768   2.166       .  S
In763       O770   2.240       .  S
In763       O771   2.296       .  S
In763       O772   2.245       .  S
In763       O775   2.215       .  S
C764        O770   1.256       .  A
C764        O772   1.262       .  A
C764        C805   1.456       .  S
O765       C1101   1.260       .  A
O766      In1091   2.233       .  S
O766        C773   1.259   1_565  A
C767        O774   1.268       .  A
C767        O768   1.255       .  A
C767        C865   1.472       .  S
C769        O771   1.265       .  A
C769        O775   1.253       .  A
C769        C782   1.468       .  S
C773       O1093   1.260   1_545  A
In776       O778   2.261       .  S
In776       O779   2.229       .  S
In776       O787   2.259       .  S
In776       O781   2.226       .  S
In776       O783   2.258       .  S
In776       O784   2.289       .  S
In776       O785   2.251       .  S
In776       O788   2.221       .  S
C777        O783   1.257       .  A
C777        O785   1.257       .  A
O778        C786   1.259       .  A
O779        C786   1.255       .  A
C780        O787   1.267       .  A
C780        O781   1.262       .  A
C780        C853   1.483       .  S
C782        O784   1.262       .  A
C782        O788   1.257       .  A
C789        C829   1.565       .  S
C789        C841   1.548       .  S
C789        C868   1.565       .  S
C789        C880   1.565       .  S
C790        C820   1.570       .  S
C790        C844   1.545       .  S
C790        C856   1.569       .  S
C790        C892   1.560       .  S
In791       O793   2.263       .  S
In791       O794   2.252       .  S
In791       O802   2.273       .  S
In791       O796   2.214       .  S
In791       O798   2.248       .  S
In791       O799   2.289       .  S
In791       O800   2.261       .  S
In791       O803   2.228       .  S
C792        O798   1.255       .  A
C792        O800   1.258       .  A
O793        C801   1.257       .  A
O794        C801   1.257       .  A
C795        O802   1.268       .  A
C795        O796   1.261       .  A
C795        C832   1.484       .  S
C797        O799   1.264       .  A
C797        O803   1.256       .  A
C797        C810   1.471       .  S
In804       O806   2.268       .  S
In804       O807   2.234       .  S
In804       O815   2.316       .  S
In804       O809   2.186       .  S
In804       O811   2.233       .  S
In804       O812   2.293       .  S
In804       O813   2.246       .  S
In804       O816   2.229       .  S
C805        O811   1.259       .  A
C805        O813   1.263       .  A
O806       C1142   1.262       .  A
O807       C1142   1.257       .  A
C808        O815   1.269       .  A
C808        O809   1.250       .  A
C808        C817   1.486       .  S
C810        O812   1.263       .  A
C810        O816   1.255       .  A
C814       O1134   1.262       .  A
C814       O1135   1.257       .  A
C817        C818   1.401       .  A
C817        C822   1.409       .  A
C818        C819   1.413       .  A
C818        H823   1.083       .  S
C819        C820   1.428       .  A
C819        O824   1.370       .  S
C820        C821   1.413       .  A
C821        C822   1.386       .  A
C821        H825   1.079       .  S
C822        O826   1.374       .  S
O824        H828   0.992       .  S
O826        H827   0.992       .  S
C829        C830   1.413       .  A
C829        C834   1.421       .  A
C830        C831   1.407       .  A
C830        H835   1.082       .  S
C831        C832   1.408       .  A
C831        O836   1.370       .  S
C832        C833   1.402       .  A
C833        C834   1.399       .  A
C833        H837   1.084       .  S
C834        O838   1.375       .  S
O836        H840   0.991       .  S
O838        H839   0.992       .  S
C841        C842   1.408       .  A
C841        C846   1.420       .  A
C842        C843   1.398   1_556  A
C842        H847   1.079       .  S
C843        C844   1.417       .  A
C843        O848   1.374       .  S
C844        C845   1.409       .  A
C845        C846   1.400   1_554  A
C845        H849   1.082       .  S
C846        O850   1.372       .  S
O848        H852   0.992       .  S
O850        H851   0.992       .  S
C853        C854   1.403       .  A
C853        C858   1.406       .  A
C854        C855   1.403       .  A
C854        H859   1.084       .  S
C855        C856   1.421       .  A
C855        O860   1.374       .  S
C856        C857   1.416       .  A
C857        C858   1.403       .  A
C857        H861   1.082       .  S
C858        O862   1.371       .  S
O860        H864   0.992       .  S
O862        H863   0.991       .  S
C865        C866   1.397       .  A
C865        C870   1.402       .  A
C866        C867   1.411       .  A
C866        H871   1.083       .  S
C867        C868   1.429       .  A
C867        O872   1.373       .  S
C868        C869   1.412       .  A
C869        C870   1.385       .  A
C869        H873   1.071       .  S
C870        O874   1.375       .  S
O872        H876   0.992       .  S
O874        H875   0.992       .  S
C877        C878   1.391       .  A
C877        C882   1.400       .  A
C878        C879   1.392       .  A
C878        H883   1.085       .  S
C879        C880   1.427       .  A
C879        O884   1.374       .  S
C880        C881   1.420       .  A
C881        C882   1.406       .  A
C881        H885   1.079       .  S
C882        O886   1.371       .  S
O884        H888   0.992       .  S
O886        H887   0.992       .  S
C889        C890   1.396       .  A
C889        C894   1.397       .  A
C890        C891   1.408       .  A
C890        H895   1.084       .  S
C891        C892   1.428       .  A
C891        O896   1.373       .  S
C892        C893   1.416       .  A
C893        C894   1.388       .  A
C893        H897   1.080       .  S
C894        O898   1.373       .  S
O896        H900   0.992       .  S
O898        H899   0.992       .  S
C901        C902   1.416       .  A
C901        C906   1.420       .  A
C902        C903   1.406       .  A
C902        H907   1.083       .  S
C903        C904   1.408       .  A
C903        O908   1.371       .  S
C904        C905   1.400       .  A
C905        C906   1.397       .  A
C905        H909   1.084       .  S
C906        O910   1.373       .  S
O908        H912   0.991       .  S
O910        H911   0.993       .  S
C913        C914   1.403       .  A
C913        C918   1.401       .  A
C914        C915   1.407       .  A
C914        H919   1.083       .  S
C915        C916   1.421       .  A
C915        O920   1.372       .  S
C916        C917   1.421       .  A
C917        C918   1.392       .  A
C917        H921   1.079       .  S
C918        O922   1.373       .  S
O920        H924   0.992       .  S
O922        H923   0.992       .  S
C925        C926   1.411       .  A
C925        C930   1.417       .  A
C926        C927   1.404   1_556  A
C926        H931   1.076       .  S
C927        C928   1.423       .  A
C927        O932   1.377       .  S
C928        C929   1.418       .  A
C929        C930   1.398   1_554  A
C929        H933   1.078       .  S
C930        O934   1.374       .  S
O932        H936   0.993       .  S
O934        H935   0.992       .  S
C937        C938   1.395       .  A
C937        C942   1.399       .  A
C938        C939   1.411       .  A
C938        H943   1.083       .  S
C939        C940   1.436       .  A
C939        O944   1.365       .  S
C940        C941   1.424       .  A
C941        C942   1.388       .  A
C941        H945   1.072       .  S
C942        O946   1.373       .  S
O944        H948   0.992       .  S
O946        H947   0.992       .  S
C949        C950   1.420       .  A
C949        C954   1.428       .  A
C950        C951   1.396       .  A
C950        H955   1.069       .  S
C951        C952   1.402       .  A
C951        O956   1.373       .  S
C952        C953   1.402       .  A
C953        C954   1.405       .  A
C953        H957   1.084       .  S
C954        O958   1.374       .  S
O956        H960   0.992       .  S
O958        H959   0.992       .  S
C961        C962   1.391       .  A
C961        C966   1.401       .  A
C962        C963   1.389       .  A
C962        H967   1.085       .  S
C963        C964   1.428       .  A
C963        O968   1.373       .  S
C964        C965   1.420       .  A
C965        C966   1.407       .  A
C965        H969   1.078       .  S
C966        O970   1.371       .  S
O968        H972   0.992       .  S
O970        H971   0.992       .  S
C973        C974   1.390       .  A
C973        C978   1.399       .  A
C974        C975   1.386       .  A
C974        H979   1.085       .  S
C975        C976   1.427       .  A
C975        O980   1.366       .  S
C976        C977   1.427       .  A
C977        C978   1.410       .  A
C977        H981   1.079       .  S
C978        O982   1.371       .  S
O980        H984   0.992       .  S
O982        H983   0.992       .  S
In985       O987   2.208       .  S
In985       O988   2.304       .  S
In985       O996   2.291       .  S
In985       O990   2.192       .  S
In985       O992   2.235       .  S
In985       O993   2.236       .  S
In985       O994   2.246       .  S
In985       O997   2.262       .  S
C986        O992   1.260       .  A
C986        O994   1.262       .  A
C986       C1012   1.459       .  S
O987        C995   1.254       .  A
O988        C995   1.265       .  A
C989        O996   1.266       .  A
C989        O990   1.254       .  A
C989       C1301   1.469       .  S
C991        O993   1.259       .  A
C991        O997   1.261       .  A
C991       C1142   1.467       .  S
C995       C1008   1.469       .  S
In998      O1000   2.206       .  S
In998      O1001   2.297       .  S
In998      O1009   2.255       .  S
In998      O1003   2.222       .  S
In998      O1005   2.259       .  S
In998      O1006   2.253       .  S
In998      O1007   2.253       .  S
In998      O1010   2.261       .  S
C999       O1005   1.258       .  A
C999       O1007   1.260       .  A
C999       C1053   1.466       .  S
O1000      C1008   1.257       .  A
O1001      C1008   1.267       .  A
C1002      O1009   1.263       .  A
C1002      O1003   1.260       .  A
C1002      C1289   1.462       .  S
C1004      O1006   1.258       .  A
C1004      O1010   1.258       .  A
C1004      C1088   1.467       .  S
In1011     O1013   2.228       .  S
In1011     O1014   2.274       .  S
In1011     O1022   2.246       .  S
In1011     O1016   2.238       .  S
In1011     O1018   2.251       .  S
In1011     O1019   2.240       .  S
In1011     O1020   2.250       .  S
In1011     O1023   2.262       .  S
C1012      O1018   1.256       .  A
C1012      O1020   1.258       .  A
O1013      C1021   1.258       .  A
O1014      C1021   1.264       .  A
C1015      O1022   1.265       .  A
C1015      O1016   1.261       .  A
C1015      C1280   1.482       .  S
C1017      O1019   1.255       .  A
C1017      O1023   1.258       .  A
C1017      C1101   1.461       .  S
C1021      C1034   1.467       .  S
In1024     O1026   2.223       .  S
In1024     O1027   2.275       .  S
In1024     O1035   2.288       .  S
In1024     O1029   2.203       .  S
In1024     O1031   2.235       .  S
In1024     O1032   2.231       .  S
In1024     O1033   2.259       .  S
In1024     O1036   2.266       .  S
C1025      O1031   1.255       .  A
C1025      O1033   1.259       .  A
C1025      C1040   1.457       .  S
O1026      C1034   1.258       .  A
O1027      C1034   1.265       .  A
C1028      O1035   1.266       .  A
C1028      O1029   1.255       .  A
C1028      C1265   1.478       .  S
C1030      C1075   1.463       .  S
C1037      C1244   1.573       .  S
C1037      C1253   1.562       .  S
C1037      C1277   1.578       .  S
C1037      C1292   1.566       .  S
C1038      C1229   1.572       .  S
C1038      C1256   1.575       .  S
C1038      C1268   1.606       .  S
C1038      C1304   1.577       .  S
In1039     O1041   2.228       .  S
In1039     O1042   2.281       .  S
In1039     O1050   2.243       .  S
In1039     O1044   2.234       .  S
In1039     O1046   2.251       .  S
In1039     O1048   2.238       .  S
In1039     O1051   2.259       .  S
C1040      O1046   1.258       .  A
C1040      O1048   1.258       .  A
O1041      C1049   1.258       .  A
O1042      C1049   1.266       .  A
C1043      O1050   1.264       .  A
C1043      O1044   1.261       .  A
C1043      C1241   1.472       .  S
C1045      O1047   1.257       .  A
C1045      C1129   1.465       .  S
C1049      C1062   1.470       .  S
In1052     O1054   2.232       .  S
In1052     O1055   2.282       .  S
In1052     O1063   2.267       .  S
In1052     O1057   2.213       .  S
In1052     O1059   2.251       .  S
In1052     O1060   2.236       .  S
In1052     O1061   2.265       .  S
In1052     O1064   2.260       .  S
C1053      O1059   1.257       .  A
C1053      O1061   1.260       .  A
O1054      C1062   1.258       .  A
O1055      C1062   1.262       .  A
C1056      O1063   1.266       .  A
C1056      O1057   1.260       .  A
C1056      C1232   1.479       .  S
C1058      O1060   1.256       .  A
C1058      O1064   1.256       .  A
C1058      C1114   1.458       .  S
In1065     O1067   2.261       .  S
In1065     O1068   2.238       .  S
In1065     O1076   2.239       .  S
In1065     O1070   2.234       .  S
In1065     O1072   2.247       .  S
In1065     O1073   2.288       .  S
In1065     O1074   2.243       .  S
In1065     O1077   2.209       .  S
C1066      O1072   1.260       .  A
C1066      O1074   1.260       .  A
C1066      C1120   1.461       .  S
O1067      C1075   1.259       .  A
O1068      C1075   1.258       .  A
C1069      O1076   1.262       .  A
C1069      O1070   1.259       .  A
C1069      C1217   1.463       .  S
C1071      O1073   1.266       .  A
C1071      O1077   1.258       .  A
C1071      C1084   1.467       .  S
In1078     O1080   2.259       .  S
In1078     O1081   2.248       .  S
In1078     O1089   2.258       .  S
In1078     O1083   2.224       .  S
In1078     O1085   2.237       .  S
In1078     O1086   2.291       .  S
In1078     O1087   2.251       .  S
In1078     O1090   2.211       .  S
C1079      O1085   1.259       .  A
C1079      O1087   1.262       .  A
C1079      C1105   1.461       .  S
O1080      C1088   1.260       .  A
O1081      C1088   1.258       .  A
C1082      O1089   1.263       .  A
C1082      O1083   1.256       .  A
C1082      C1205   1.462       .  S
C1084      O1086   1.265       .  A
C1084      O1090   1.256       .  A
In1091     O1093   2.247       .  S
In1091     O1102   2.296       .  S
In1091     O1096   2.166       .  S
In1091     O1098   2.240       .  S
In1091     O1099   2.296       .  S
In1091     O1100   2.245       .  S
In1091     O1103   2.215       .  S
C1092      O1098   1.256       .  A
C1092      O1100   1.262       .  A
C1092      C1133   1.456       .  S
O1094      C1101   1.259       .  A
C1095      O1102   1.268       .  A
C1095      O1096   1.255       .  A
C1095      C1193   1.472       .  S
C1097      O1099   1.265       .  A
C1097      O1103   1.253       .  A
C1097      C1110   1.468       .  S
In1104     O1106   2.261       .  S
In1104     O1107   2.229       .  S
In1104     O1115   2.259       .  S
In1104     O1109   2.226       .  S
In1104     O1111   2.258       .  S
In1104     O1112   2.289       .  S
In1104     O1113   2.251       .  S
In1104     O1116   2.221       .  S
C1105      O1111   1.257       .  A
C1105      O1113   1.257       .  A
O1106      C1114   1.259       .  A
O1107      C1114   1.255       .  A
C1108      O1115   1.267       .  A
C1108      O1109   1.262       .  A
C1108      C1181   1.483       .  S
C1110      O1112   1.262       .  A
C1110      O1116   1.257       .  A
C1117      C1157   1.565       .  S
C1117      C1169   1.548       .  S
C1117      C1196   1.565       .  S
C1117      C1208   1.565       .  S
C1118      C1148   1.570       .  S
C1118      C1172   1.545       .  S
C1118      C1184   1.569       .  S
C1118      C1220   1.560       .  S
In1119     O1121   2.263       .  S
In1119     O1122   2.252       .  S
In1119     O1130   2.273       .  S
In1119     O1124   2.214       .  S
In1119     O1126   2.248       .  S
In1119     O1127   2.289       .  S
In1119     O1128   2.261       .  S
In1119     O1131   2.228       .  S
C1120      O1126   1.255       .  A
C1120      O1128   1.258       .  A
O1121      C1129   1.257       .  A
O1122      C1129   1.257       .  A
C1123      O1130   1.268       .  A
C1123      O1124   1.261       .  A
C1123      C1160   1.484       .  S
C1125      O1127   1.264       .  A
C1125      O1131   1.256       .  A
C1125      C1138   1.471       .  S
In1132     O1134   2.268       .  S
In1132     O1135   2.234       .  S
In1132     O1143   2.316       .  S
In1132     O1137   2.186       .  S
In1132     O1139   2.233       .  S
In1132     O1140   2.293       .  S
In1132     O1141   2.246       .  S
In1132     O1144   2.229       .  S
C1133      O1139   1.259       .  A
C1133      O1141   1.263       .  A
C1136      O1143   1.269       .  A
C1136      O1137   1.250       .  A
C1136      C1145   1.486       .  S
C1138      O1140   1.263       .  A
C1138      O1144   1.255       .  A
C1145      C1146   1.401       .  A
C1145      C1150   1.409       .  A
C1146      C1147   1.413       .  A
C1146      H1151   1.083       .  S
C1147      C1148   1.428       .  A
C1147      O1152   1.370       .  S
C1148      C1149   1.413       .  A
C1149      C1150   1.386       .  A
C1149      H1153   1.079       .  S
C1150      O1154   1.374       .  S
O1152      H1156   0.992       .  S
O1154      H1155   0.992       .  S
C1157      C1158   1.413       .  A
C1157      C1162   1.421       .  A
C1158      C1159   1.407       .  A
C1158      H1163   1.082       .  S
C1159      C1160   1.408       .  A
C1159      O1164   1.370       .  S
C1160      C1161   1.402       .  A
C1161      C1162   1.399       .  A
C1161      H1165   1.084       .  S
C1162      O1166   1.375       .  S
O1164      H1168   0.991       .  S
O1166      H1167   0.992       .  S
C1169      C1170   1.408       .  A
C1169      C1174   1.420       .  A
C1170      C1171   1.398   1_556  A
C1170      H1175   1.079       .  S
C1171      C1172   1.417       .  A
C1171      O1176   1.374       .  S
C1172      C1173   1.409       .  A
C1173      C1174   1.400   1_554  A
C1173      H1177   1.082       .  S
C1174      O1178   1.372       .  S
O1176      H1180   0.992       .  S
O1178      H1179   0.992       .  S
C1181      C1182   1.403       .  A
C1181      C1186   1.406       .  A
C1182      C1183   1.403       .  A
C1182      H1187   1.084       .  S
C1183      C1184   1.421       .  A
C1183      O1188   1.374       .  S
C1184      C1185   1.416       .  A
C1185      C1186   1.403       .  A
C1185      H1189   1.082       .  S
C1186      O1190   1.371       .  S
O1188      H1192   0.992       .  S
O1190      H1191   0.991       .  S
C1193      C1194   1.397       .  A
C1193      C1198   1.402       .  A
C1194      C1195   1.411       .  A
C1194      H1199   1.083       .  S
C1195      C1196   1.429       .  A
C1195      O1200   1.373       .  S
C1196      C1197   1.412       .  A
C1197      C1198   1.385       .  A
C1197      H1201   1.071       .  S
C1198      O1202   1.375       .  S
O1200      H1204   0.992       .  S
O1202      H1203   0.992       .  S
C1205      C1206   1.391       .  A
C1205      C1210   1.400       .  A
C1206      C1207   1.392       .  A
C1206      H1211   1.085       .  S
C1207      C1208   1.427       .  A
C1207      O1212   1.374       .  S
C1208      C1209   1.420       .  A
C1209      C1210   1.406       .  A
C1209      H1213   1.079       .  S
C1210      O1214   1.371       .  S
O1212      H1216   0.992       .  S
O1214      H1215   0.992       .  S
C1217      C1218   1.396       .  A
C1217      C1222   1.397       .  A
C1218      C1219   1.408       .  A
C1218      H1223   1.084       .  S
C1219      C1220   1.428       .  A
C1219      O1224   1.373       .  S
C1220      C1221   1.416       .  A
C1221      C1222   1.388       .  A
C1221      H1225   1.080       .  S
C1222      O1226   1.373       .  S
O1224      H1228   0.992       .  S
O1226      H1227   0.992       .  S
C1229      C1230   1.416       .  A
C1229      C1234   1.420       .  A
C1230      C1231   1.406       .  A
C1230      H1235   1.083       .  S
C1231      C1232   1.408       .  A
C1231      O1236   1.371       .  S
C1232      C1233   1.400       .  A
C1233      C1234   1.397       .  A
C1233      H1237   1.084       .  S
C1234      O1238   1.373       .  S
O1236      H1240   0.991       .  S
O1238      H1239   0.993       .  S
C1241      C1242   1.403       .  A
C1241      C1246   1.401       .  A
C1242      C1243   1.407       .  A
C1242      H1247   1.083       .  S
C1243      C1244   1.421       .  A
C1243      O1248   1.372       .  S
C1244      C1245   1.421       .  A
C1245      C1246   1.392       .  A
C1245      H1249   1.079       .  S
C1246      O1250   1.373       .  S
O1248      H1252   0.992       .  S
O1250      H1251   0.992       .  S
C1253      C1254   1.411       .  A
C1253      C1258   1.417       .  A
C1254      C1255   1.404   1_556  A
C1254      H1259   1.076       .  S
C1255      C1256   1.423       .  A
C1255      O1260   1.377       .  S
C1256      C1257   1.418       .  A
C1257      C1258   1.398   1_554  A
C1257      H1261   1.078       .  S
C1258      O1262   1.374       .  S
O1260      H1264   0.993       .  S
O1262      H1263   0.992       .  S
C1265      C1266   1.395       .  A
C1265      C1270   1.399       .  A
C1266      C1267   1.411       .  A
C1266      H1271   1.083       .  S
C1267      C1268   1.436       .  A
C1267      O1272   1.365       .  S
C1268      C1269   1.424       .  A
C1269      C1270   1.388       .  A
C1269      H1273   1.072       .  S
C1270      O1274   1.373       .  S
O1272      H1276   0.992       .  S
O1274      H1275   0.992       .  S
C1277      C1278   1.420       .  A
C1277      C1282   1.428       .  A
C1278      C1279   1.396       .  A
C1278      H1283   1.069       .  S
C1279      C1280   1.402       .  A
C1279      O1284   1.373       .  S
C1280      C1281   1.402       .  A
C1281      C1282   1.405       .  A
C1281      H1285   1.084       .  S
C1282      O1286   1.374       .  S
O1284      H1288   0.992       .  S
O1286      H1287   0.992       .  S
C1289      C1290   1.391       .  A
C1289      C1294   1.401       .  A
C1290      C1291   1.389       .  A
C1290      H1295   1.085       .  S
C1291      C1292   1.428       .  A
C1291      O1296   1.373       .  S
C1292      C1293   1.420       .  A
C1293      C1294   1.407       .  A
C1293      H1297   1.078       .  S
C1294      O1298   1.371       .  S
O1296      H1300   0.992       .  S
O1298      H1299   0.992       .  S
C1301      C1302   1.390       .  A
C1301      C1306   1.399       .  A
C1302      C1303   1.386       .  A
C1302      H1307   1.085       .  S
C1303      C1304   1.427       .  A
C1303      O1308   1.366       .  S
C1304      C1305   1.427       .  A
C1305      C1306   1.410       .  A
C1305      H1309   1.079       .  S
C1306      O1310   1.371       .  S
O1308      H1312   0.992       .  S
O1310      H1311   0.992       .  S
