geometry optimzed in LAMMPS
_audit_creation_date              2020-11-30 
_audit_creation_method            'lammps2cif' 
_symmetry_space_group_name_H-M    'P1' 
_symmetry_Int_Tables_number       1 
_symmetry_cell_setting            triclinic 
loop_ 
_symmetry_equiv_pos_as_xyz 
  x,y,z 
_cell_length_a                    42.28981995 
_cell_length_b                    42.621892980857105 
_cell_length_c                    34.59264860793211 
_cell_angle_alpha                 89.7846238647619 
_cell_angle_beta                  89.81658196403264 
_cell_angle_gamma                 89.33194491167886 
loop_ 
_atom_site_label 
_atom_site_type_symbol 
_atom_site_fract_x 
_atom_site_fract_y 
_atom_site_fract_z 
_atom_site_charge 
C1          C  0.25070810  0.10759883  0.39610482     0.85700
C2          C  0.22114294  0.12917024  0.40193601    -0.54600
C3          C  0.22088088  0.15566816  0.37943851     0.08600
C4          C  0.25090504  0.15798897  0.35463611     0.19600
C5          C  0.25240509  0.10153537  0.35190902    -0.55300
C6          C  0.25249273  0.12824009  0.32966930     0.08700
C7          C  0.27860271  0.13003318  0.40468319    -0.54800
C8          C  0.27900647  0.15657540  0.38262264     0.09300
H9          H  0.20263398  0.12428405  0.42273539     0.13800
H10         H  0.25103267  0.17854289  0.33806062    -0.00500
H11         H  0.25335597  0.07812187  0.33975135     0.14100
H12         H  0.29576006  0.12602059  0.42735838     0.13900
C13         C  0.14575104  0.20872817  0.39448993     0.85700
C14         C  0.16671434  0.23742893  0.40264416    -0.54600
C15         C  0.19390801  0.23855848  0.38140649     0.08600
C16         C  0.19687744  0.21056836  0.35382528     0.19600
C17         C  0.13990510  0.21039327  0.34996212    -0.55300
C18         C  0.16712638  0.21149293  0.32824764     0.08700
C19         C  0.16768749  0.17967137  0.39967797    -0.54800
C20         C  0.19503062  0.18060359  0.37873400     0.09300
H21         H  0.16005994  0.25517817  0.42360679     0.13800
H22         H  0.21788371  0.21144892  0.33767413    -0.00500
H23         H  0.11686822  0.21074593  0.33656071     0.14100
H24         H  0.16186031  0.16031402  0.41875101     0.13900
C25         C  0.35030384  0.21104137  0.40569406     0.85700
C26         C  0.32874955  0.18215370  0.40980003    -0.54600
C27         C  0.30334433  0.18227976  0.38549676     0.08600
C28         C  0.30245111  0.21178595  0.35991381     0.19600
C29         C  0.35935195  0.21221793  0.36206220    -0.55300
C30         C  0.33408067  0.21229180  0.33759715     0.08700
C31         C  0.32817835  0.24007017  0.41068351    -0.54800
C32         C  0.30233252  0.24027945  0.38722582     0.09300
H33         H  0.33376359  0.16327430  0.43005042     0.13800
H34         H  0.28277983  0.21198772  0.34156866    -0.00500
H35         H  0.38334600  0.21386987  0.35137693     0.14100
H36         H  0.33290682  0.25891330  0.43072148     0.13900
C37         C  0.24507325  0.31198270  0.40500733     0.85700
C38         C  0.27425819  0.29019681  0.41194607    -0.54600
C39         C  0.27639520  0.26515099  0.38736642     0.08600
C40         C  0.24851442  0.26453291  0.35916783     0.19600
C41         C  0.24682803  0.32100647  0.36152803    -0.55300
C42         C  0.24879611  0.29591902  0.33702365     0.08700
C43         C  0.21658854  0.28926427  0.40796931    -0.54800
C44         C  0.21827739  0.26422127  0.38370755     0.09300
H45         H  0.29142911  0.29445817  0.43448338     0.13800
H46         H  0.24974306  0.24499932  0.34103690    -0.00500
H47         H  0.24673290  0.34514752  0.35147576     0.14100
H48         H  0.19720271  0.29153304  0.42801641     0.13900
C49         C  0.25656383  0.11336245  0.21778630     0.85700
C50         C  0.28507986  0.13594892  0.21417364    -0.54600
C51         C  0.28386025  0.16098142  0.23849628     0.08600
C52         C  0.25376304  0.16105836  0.26330324     0.19600
C53         C  0.25529011  0.10462580  0.26136911    -0.55300
C54         C  0.25364939  0.12976863  0.28575642     0.08700
C55         C  0.22746244  0.13539306  0.21083499    -0.54800
C56         C  0.22575239  0.16074997  0.23499316     0.09300
H57         H  0.30399173  0.13362281  0.19341305     0.13800
H58         H  0.25287695  0.18052869  0.28157134    -0.00500
H59         H  0.25603825  0.08056006  0.27165544     0.14100
H60         H  0.21020963  0.13130460  0.18833452     0.13900
C61         C  0.15299816  0.21714706  0.21624821     0.85700
C62         C  0.17524099  0.18828608  0.20962735    -0.54600
C63         C  0.20051834  0.18652968  0.23425606     0.08600
C64         C  0.20071429  0.21446995  0.26236354     0.19600
C65         C  0.14383761  0.21552707  0.25971785    -0.55300
C66         C  0.16902002  0.21385770  0.28442864     0.08700
C67         C  0.17544083  0.24568714  0.21323033    -0.54800
C68         C  0.20058617  0.24450368  0.23751997     0.09300
H69         H  0.17099525  0.17091570  0.18746440     0.13800
H70         H  0.22021422  0.21368918  0.28094785    -0.00500
H71         H  0.11946870  0.21553733  0.26958845     0.14100
H72         H  0.17267227  0.26516578  0.19366104     0.13900
C73         C  0.35713252  0.21525105  0.22748627     0.85700
C74         C  0.33569912  0.24461250  0.22289204    -0.54600
C75         C  0.30847801  0.24393339  0.24410826     0.08600
C76         C  0.30620733  0.21403724  0.26860644     0.19600
C77         C  0.36322301  0.21349562  0.27193061    -0.55300
C78         C  0.33601812  0.21302434  0.29384085     0.08700
C79         C  0.33570012  0.18695937  0.21930445    -0.54800
C80         C  0.30864478  0.18616223  0.24080815     0.09300
H81         H  0.34201305  0.26405828  0.20423819     0.13800
H82         H  0.28523338  0.21354118  0.28486164    -0.00500
H83         H  0.38637748  0.21325496  0.28504041     0.14100
H84         H  0.34190303  0.16927375  0.19806256     0.13900
C85         C  0.25506141  0.31792990  0.22705545     0.85700
C86         C  0.22688915  0.29622653  0.21774726    -0.54600
C87         C  0.22554000  0.26961489  0.24001687     0.08600
C88         C  0.25308536  0.26761093  0.26853379     0.19600
C89         C  0.25251632  0.32414641  0.27114735    -0.55300
C90         C  0.25141282  0.29744947  0.29334543     0.08700
C91         C  0.28423075  0.29575316  0.22229743    -0.54800
C92         C  0.28343120  0.26937411  0.24440923     0.09300
H93         H  0.20998136  0.30161634  0.19514964     0.13800
H94         H  0.25232692  0.24690468  0.28481514    -0.00500
H95         H  0.25163439  0.34758003  0.28325420     0.14100
H96         H  0.30300551  0.29907620  0.20161381     0.13900
O97         O  0.03363288  0.23942933  0.09420424    -0.72600
O98         O  0.46586472  0.23542157  0.02278437    -0.72800
O99         O  0.46991992  0.23983936  0.09962753    -0.72700
O100        O  0.02883676  0.23593042  0.01679485    -0.72700
O101        O  0.03351356  0.18531604  0.02316389    -0.72600
O102        O  0.47109326  0.18886468  0.10286279    -0.72700
O103        O  0.46957013  0.18450653  0.02534585    -0.72600
O104        O  0.03404713  0.18876079  0.10057633    -0.72800
V105        V  0.99965387  0.23578749  0.05880537     1.35200
V106        V  0.00200920  0.18691173  0.06244371     1.35200
C107        C  0.04527039  0.21502700  0.10982603     0.76600
C108        C  0.45631611  0.20891768  0.01196269     0.76700
C109        C  0.46012262  0.21476228  0.11485745     0.76600
C110        C  0.04159190  0.21036129  0.00634078     0.76500
O111        O  0.22446987  0.42967332  0.02740927    -0.72600
O112        O  0.22707896  0.49628834  0.09961688    -0.72800
O113        O  0.22475272  0.49269976  0.02174797    -0.72700
O114        O  0.22710301  0.43337965  0.10465230    -0.72700
O115        O  0.27824514  0.43241756  0.10086487    -0.72600
O116        O  0.27595139  0.49241029  0.01995164    -0.72700
O117        O  0.27827666  0.49520295  0.09755351    -0.72000
O118        O  0.27569760  0.42938052  0.02351471    -0.72800
V119        V  0.22682380  0.46308238  0.06324015     1.35200
V120        V  0.27604193  0.46240086  0.06051612     1.35200
C121        C  0.24954796  0.41780795  0.01352805     0.76600
C122        C  0.25602228  0.00735764  0.10965652     0.76700
C123        C  0.25311844  0.00244539  0.00520690     0.76600
C124        C  0.25328180  0.42233711  0.11646535     0.76500
C125        C  0.22782076  0.39097267  0.16928625    -0.27100
C126        C  0.25485169  0.39779222  0.14715885    -0.15200
C127        C  0.28317050  0.38093611  0.15475864     0.35400
C128        C  0.28342018  0.35733577  0.18305051    -0.26600
C129        C  0.25560645  0.34796676  0.20224184    -0.15800
C130        C  0.22807539  0.36662501  0.19690432     0.36500
N131        N  0.20019508  0.36083212  0.21931745    -0.90100
H132        H  0.20619409  0.40438502  0.16493814     0.17600
H133        H  0.30590225  0.34652645  0.18953350     0.17600
N134        N  0.31160896  0.38714417  0.13320762    -0.89100
H135        H  0.18165665  0.35625339  0.20030201     0.35000
H136        H  0.19448833  0.38129602  0.23451215     0.40100
H137        H  0.30784338  0.37975027  0.10480929     0.39700
H138        H  0.33061425  0.37368469  0.14356070     0.34600
C139        C  0.41678797  0.21215068  0.21109392    -0.27100
C140        C  0.38507946  0.21586886  0.19910250    -0.15200
C141        C  0.37901036  0.21925224  0.15890177     0.35400
C142        C  0.40397794  0.21947713  0.13232719    -0.26600
C143        C  0.43517241  0.21563478  0.14446555    -0.15800
C144        C  0.44185333  0.21188357  0.18404339     0.36500
N145        N  0.47401194  0.20750849  0.19648092    -0.90100
H146        H  0.42244606  0.20890393  0.24120222     0.17600
H147        H  0.39885857  0.22210698  0.10179226     0.17600
N148        N  0.34727578  0.22217730  0.14474089    -0.89100
H149        H  0.47501392  0.20482779  0.22650741     0.35000
H150        H  0.48626584  0.22800630  0.18980290     0.40100
H151        H  0.34331639  0.20382123  0.12544662     0.39700
H152        H  0.34530320  0.24331724  0.12945033     0.34600
C153        C  0.07750908  0.19166833  0.16316187    -0.27100
C154        C  0.07162056  0.21687536  0.13785291    -0.15200
C155        C  0.09155234  0.24302958  0.13907731     0.35400
C156        C  0.11702624  0.24336791  0.16480913    -0.26600
C157        C  0.12398634  0.21765697  0.18945647    -0.15800
C158        C  0.10316671  0.19189742  0.18886215     0.36500
N159        N  0.10806200  0.16569967  0.21429711    -0.90100
H160        H  0.06213849  0.17150349  0.16302975     0.17600
H161        H  0.13083008  0.26432912  0.16445708     0.17600
N162        N  0.08670689  0.26913002  0.11342829    -0.89100
H163        H  0.08777521  0.16318388  0.23133193     0.35000
H164        H  0.11073091  0.14551455  0.19746251     0.40100
H165        H  0.10716411  0.27182793  0.09673802     0.39700
H166        H  0.08358749  0.28934532  0.13010944     0.34600
C167        C  0.23068449  0.04027260  0.16078645    -0.27100
C168        C  0.25749006  0.03332610  0.13818373    -0.15200
C169        C  0.28505387  0.05109953  0.14347620     0.35400
C170        C  0.28484754  0.07574112  0.17034458    -0.26600
C171        C  0.25736286  0.08427354  0.19139499    -0.15800
C172        C  0.23043145  0.06498936  0.18766139     0.36500
N173        N  0.20262990  0.07072930  0.21076649    -0.90100
H174        H  0.20973487  0.02611603  0.15773679     0.17600
H175        H  0.30680896  0.08766557  0.17457612     0.17600
N176        N  0.31316448  0.04447001  0.12126492    -0.89100
H177        H  0.18441603  0.05568217  0.20287314     0.35000
H178        H  0.20816609  0.06510078  0.23937572     0.40100
H179        H  0.33165595  0.05908433  0.12941666     0.39700
H180        H  0.30818361  0.04989841  0.09239554     0.34600
C181        C  0.27096362  0.38586587  0.46009929    -0.27100
C182        C  0.24512361  0.39193414  0.48463716    -0.15200
C183        C  0.21822303  0.37275656  0.48201620     0.35400
C184        C  0.21791934  0.34804487  0.45529473    -0.26600
C185        C  0.24437736  0.34076125  0.43181245    -0.15800
C186        C  0.27073987  0.36085149  0.43376218     0.36500
N187        N  0.29754910  0.35589284  0.40901410    -0.90100
H188        H  0.29158111  0.40069214  0.46120991     0.17600
H189        H  0.19646615  0.33493801  0.45355132     0.17600
N190        N  0.20001864  0.37139554  0.01929077    -0.89100
H191        H  0.31749597  0.35256972  0.42638632     0.35000
H192        H  0.30081762  0.37624142  0.39256302     0.40100
H193        H  0.21140224  0.36800280  0.04580286     0.39700
H194        H  0.18330955  0.35361462  0.01702904     0.34600
C195        C  0.39987119  0.21880977  0.49833800    -0.27100
C196        C  0.42973386  0.20907292  0.48554490    -0.15200
C197        C  0.43358137  0.19727832  0.44796609     0.35400
C198        C  0.40771936  0.19789933  0.42260987    -0.26600
C199        C  0.37783557  0.20962918  0.43431528    -0.15800
C200        C  0.37355050  0.21772398  0.47383440     0.36500
N201        N  0.34258191  0.22450238  0.48920684    -0.90100
H202        H  0.39633945  0.22190036  0.02827854     0.17600
H203        H  0.41107119  0.18832175  0.39402924     0.17600
N204        N  0.46386696  0.18539790  0.43545570    -0.89100
H205        H  0.34321891  0.22579156  0.01837748     0.35000
H206        H  0.32947977  0.20390444  0.48781163     0.40100
H207        H  0.46893964  0.16520909  0.45163311     0.39700
H208        H  0.46298276  0.17839089  0.40654683     0.34600
C209        C  0.09785054  0.20639624  0.48905340    -0.27100
C210        C  0.06669974  0.20911918  0.47630097    -0.15200
C211        C  0.06041854  0.21119253  0.43643300     0.35400
C212        C  0.08578544  0.21039332  0.40980817    -0.26600
C213        C  0.11745685  0.20804197  0.42243727    -0.15800
C214        C  0.12310487  0.20606718  0.46283687     0.36500
N215        N  0.15471504  0.20401198  0.47755472    -0.90100
H216        H  0.10261116  0.20205436  0.02002113     0.17600
H217        H  0.08031622  0.21209181  0.37948237     0.17600
N218        N  0.02832309  0.21361658  0.42315454    -0.89100
H219        H  0.15679175  0.18340227  0.49389050     0.35000
H220        H  0.15824443  0.22303538  0.49597865     0.40100
H221        H  0.01899757  0.23501361  0.43286503     0.39700
H222        H  0.02756870  0.21433481  0.39296054     0.34600
C223        C  0.27998069  0.06527381  0.43491387    -0.27100
C224        C  0.25108950  0.07719812  0.42049095    -0.15200
C225        C  0.22334515  0.05997337  0.42875445     0.35400
C226        C  0.22439282  0.03550066  0.45633487    -0.26600
C227        C  0.25285296  0.02626275  0.47418233    -0.15800
C228        C  0.28124346  0.04040681  0.46167055     0.36500
N229        N  0.31133870  0.03012789  0.47664833    -0.90100
H230        H  0.30205202  0.07523106  0.42534176     0.17600
H231        H  0.20274017  0.02360707  0.46396775     0.17600
N232        N  0.19421307  0.06717469  0.40917670    -0.89100
H233        H  0.32956874  0.04430243  0.46636179     0.35000
H234        H  0.31585211  0.00766777  0.46574244     0.40100
H235        H  0.19765568  0.06245220  0.37982562     0.39700
H236        H  0.17615333  0.05244292  0.41867070     0.34600
C237        C  0.25040720  0.10702789  0.89475607     0.85700
C238        C  0.22088515  0.12863823  0.90104222    -0.54600
C239        C  0.22056021  0.15530949  0.87881059     0.08600
C240        C  0.25046918  0.15772619  0.85385230     0.19600
C241        C  0.25183756  0.10128442  0.85048119    -0.55300
C242        C  0.25181458  0.12817398  0.82855490     0.08700
C243        C  0.27835713  0.12931580  0.90334560    -0.54800
C244        C  0.27871262  0.15598739  0.88158507     0.09300
H245        H  0.20247394  0.12367749  0.92194151     0.13800
H246        H  0.25059496  0.17842463  0.83755159    -0.00500
H247        H  0.25270689  0.07796297  0.83805309     0.14100
H248        H  0.29561312  0.12507637  0.92584857     0.13900
C249        C  0.14571043  0.20865077  0.89489823     0.85700
C250        C  0.16693078  0.23707156  0.90344513    -0.54600
C251        C  0.19397648  0.23834080  0.88196960     0.08600
C252        C  0.19667535  0.21057644  0.85393790     0.19600
C253        C  0.13968401  0.21072246  0.85042895    -0.55300
C254        C  0.16679584  0.21185018  0.82853593     0.08700
C255        C  0.16745755  0.17935470  0.89947323    -0.54800
C256        C  0.19477635  0.18036164  0.87846835     0.09300
H257        H  0.16058256  0.25452593  0.92491536     0.13800
H258        H  0.21761454  0.21151190  0.83763043    -0.00500
H259        H  0.11658516  0.21101793  0.83717560     0.14100
H260        H  0.16155767  0.15979274  0.91818893     0.13900
C261        C  0.35035952  0.20974365  0.90499614     0.85700
C262        C  0.32871142  0.18093148  0.90866873    -0.54600
C263        C  0.30317274  0.18150323  0.88460492     0.08600
C264        C  0.30226024  0.21128819  0.85954852     0.19600
C265        C  0.35916515  0.21142443  0.86128914    -0.55300
C266        C  0.33372472  0.21196768  0.83702278     0.08700
C267        C  0.32836231  0.23878459  0.91070772    -0.54800
C268        C  0.30245147  0.23945735  0.88729984     0.09300
H269        H  0.33376975  0.16176688  0.92848986     0.13800
H270        H  0.28250530  0.21174398  0.84132614    -0.00500
H271        H  0.38308228  0.21312414  0.85040512     0.14100
H272        H  0.33321556  0.25723128  0.93126028     0.13900
C273        C  0.24579353  0.31124451  0.90648865     0.85700
C274        C  0.27496685  0.28939084  0.91257447    -0.54600
C275        C  0.27671469  0.26451022  0.88779298     0.08600
C276        C  0.24862833  0.26425361  0.85986741     0.19600
C277        C  0.24699335  0.32071905  0.86304581    -0.55300
C278        C  0.24873255  0.29587380  0.83810711     0.08700
C279        C  0.21699517  0.28883324  0.90909090    -0.54800
C280        C  0.21856063  0.26381500  0.88469691     0.09300
H281        H  0.29245088  0.29353655  0.93479236     0.13800
H282        H  0.24964650  0.24489908  0.84142256    -0.00500
H283        H  0.24662920  0.34493910  0.85329874     0.14100
H284        H  0.19677091  0.29210042  0.92765329     0.13900
C285        C  0.25535788  0.11422402  0.71658373     0.85700
C286        C  0.28412393  0.13655691  0.71312791    -0.54600
C287        C  0.28310237  0.16150378  0.73770797     0.08600
C288        C  0.25304245  0.16156043  0.76261578     0.19600
C289        C  0.25395017  0.10515116  0.76000888    -0.55300
C290        C  0.25273043  0.13008949  0.78468470     0.08700
C291        C  0.22656098  0.13661018  0.70977965    -0.54800
C292        C  0.22499584  0.16164916  0.73436051     0.09300
H293        H  0.30290479  0.13407502  0.69213231     0.13800
H294        H  0.25227036  0.18089140  0.78110871    -0.00500
H295        H  0.25425464  0.08098309  0.76995891     0.14100
H296        H  0.20939953  0.13303286  0.68704522     0.13900
C297        C  0.15221477  0.21791558  0.71648173     0.85700
C298        C  0.17439244  0.18914361  0.70968201    -0.54600
C299        C  0.19978613  0.18737121  0.73405421     0.08600
C300        C  0.20006252  0.21506699  0.76241614     0.19600
C301        C  0.14314276  0.21618979  0.76006951    -0.55300
C302        C  0.16844912  0.21431886  0.78467558     0.08700
C303        C  0.17426935  0.24677039  0.71412665    -0.54800
C304        C  0.19973986  0.24527286  0.73794852     0.09300
H305        H  0.16996008  0.17180949  0.68752967     0.13800
H306        H  0.21965455  0.21415340  0.78086668    -0.00500
H307        H  0.11883315  0.21643406  0.77013732     0.14100
H308        H  0.16996596  0.26739262  0.69677497     0.13900
C309        C  0.35623960  0.21611902  0.72688606     0.85700
C310        C  0.33469091  0.24546025  0.72252773    -0.54600
C311        C  0.30755736  0.24467804  0.74391925     0.08600
C312        C  0.30541654  0.21456395  0.76817018     0.19600
C313        C  0.36241598  0.21408847  0.77127200    -0.55300
C314        C  0.33533030  0.21337046  0.79327343     0.08700
C315        C  0.33485117  0.18778008  0.71852036    -0.54800
C316        C  0.30783536  0.18679390  0.74009969     0.09300
H317        H  0.34085443  0.26499797  0.70393436     0.13800
H318        H  0.28450684  0.21397257  0.78456740    -0.00500
H319        H  0.38555933  0.21366902  0.78436619     0.14100
H320        H  0.34103234  0.17017631  0.69715973     0.13900
C321        C  0.25385194  0.31890863  0.72818594     0.85700
C322        C  0.22576856  0.29714118  0.71880752    -0.54600
C323        C  0.22455305  0.27044844  0.74084930     0.08600
C324        C  0.25229754  0.26823994  0.76909296     0.19600
C325        C  0.25154693  0.32474273  0.77241954    -0.55300
C326        C  0.25076790  0.29784635  0.79433417     0.08700
C327        C  0.28311576  0.29686982  0.72290870    -0.54800
C328        C  0.28250549  0.27021849  0.74468043     0.09300
H329        H  0.20888653  0.30241059  0.69614461     0.13800
H330        H  0.25166547  0.24741682  0.78516269    -0.00500
H331        H  0.25068929  0.34807121  0.78482950     0.14100
H332        H  0.30181146  0.30068531  0.70218111     0.13900
O333        O  0.03371745  0.23998821  0.59323318    -0.72600
O334        O  0.46602672  0.23705952  0.52391842    -0.72800
O335        O  0.47065197  0.24094605  0.60074905    -0.72700
O336        O  0.02907901  0.23577897  0.51593392    -0.72700
O337        O  0.03289821  0.18511278  0.52246797    -0.72600
O338        O  0.47023189  0.18993711  0.60275733    -0.72700
O339        O  0.46936142  0.18609627  0.52528404    -0.72600
O340        O  0.03393462  0.18930298  0.59988310    -0.72800
V341        V  0.99972182  0.23625291  0.55773270     1.35200
V342        V  0.00165728  0.18738333  0.56205582     1.35200
C343        C  0.04529076  0.21556016  0.60889162     0.76600
C344        C  0.45634237  0.21078839  0.51240806     0.76700
C345        C  0.45992940  0.21596071  0.61521146     0.76600
C346        C  0.04141351  0.20998596  0.50558866     0.76500
O347        O  0.22178659  0.42986538  0.52738965    -0.72600
O348        O  0.22536513  0.49657634  0.59942777    -0.72800
O349        O  0.22207196  0.49281837  0.52166382    -0.72700
O350        O  0.22532685  0.43376532  0.60498227    -0.72700
O351        O  0.27635817  0.43212406  0.59983254    -0.72600
O352        O  0.27325307  0.49263189  0.51937634    -0.72700
O353        O  0.27654234  0.49498305  0.59685723    -0.72000
O354        O  0.27290339  0.42967757  0.52242091    -0.72800
V355        V  0.22459464  0.46325572  0.56324017     1.35200
V356        V  0.27375828  0.46238291  0.55968857     1.35200
C357        C  0.24665021  0.41827370  0.51258567     0.76600
C358        C  0.25509477  0.00714695  0.61021429     0.76700
C359        C  0.25234217  0.00245787  0.50601336     0.76600
C360        C  0.25160094  0.42274396  0.61660153     0.76500
C361        C  0.22594058  0.39117259  0.66921106    -0.27100
C362        C  0.25341600  0.39909015  0.64851646    -0.15200
C363        C  0.28222548  0.38393894  0.65852956     0.35400
C364        C  0.28221284  0.35957946  0.68596109    -0.26600
C365        C  0.25412542  0.34913734  0.70360266    -0.15800
C366        C  0.22624103  0.36705729  0.69715820     0.36500
N367        N  0.19804228  0.36076575  0.71874556    -0.90100
H368        H  0.20391924  0.40356196  0.66351755     0.17600
H369        H  0.30474992  0.34938928  0.69374886     0.17600
N370        N  0.31152884  0.39288003  0.64059613    -0.89100
H371        H  0.18002437  0.35564604  0.69920785     0.35000
H372        H  0.19154274  0.38120611  0.73353276     0.40100
H373        H  0.33009668  0.37809884  0.64932628     0.39700
H374        H  0.31701066  0.41526202  0.65066897     0.34600
C375        C  0.41604019  0.21407271  0.71098834    -0.27100
C376        C  0.38431888  0.21700699  0.69869367    -0.15200
C377        C  0.37843567  0.22008409  0.65843717     0.35400
C378        C  0.40355873  0.22031366  0.63204300    -0.26600
C379        C  0.43474994  0.21709605  0.64451414    -0.15800
C380        C  0.44126028  0.21408705  0.68419396     0.36500
N381        N  0.47343051  0.21068635  0.69699917    -0.90100
H382        H  0.42167466  0.21132836  0.74115401     0.17600
H383        H  0.39858389  0.22251493  0.60142564     0.17600
N384        N  0.34674604  0.22269512  0.64405803    -0.89100
H385        H  0.47431779  0.20844733  0.72708591     0.35000
H386        H  0.48519234  0.23140073  0.69000361     0.40100
H387        H  0.34300972  0.20420763  0.62488606     0.39700
H388        H  0.34468328  0.24374207  0.62858975     0.34600
C389        C  0.07499123  0.19436184  0.66554689    -0.27100
C390        C  0.07177247  0.21733395  0.63663961    -0.15200
C391        C  0.09490052  0.24058546  0.63331506     0.35400
C392        C  0.12047727  0.24075924  0.65896384    -0.26600
C393        C  0.12370912  0.21819532  0.68886536    -0.15800
C394        C  0.10061978  0.19446026  0.69131216     0.36500
N395        N  0.10333291  0.16997897  0.71962792    -0.90100
H396        H  0.05756092  0.17602324  0.66810708     0.17600
H397        H  0.13804301  0.25825725  0.65351959     0.17600
N398        N  0.09337473  0.26335380  0.60275122    -0.89100
H399        H  0.08290536  0.17041645  0.73673069     0.35000
H400        H  0.10428208  0.14848806  0.70516874     0.40100
H401        H  0.11389474  0.26110487  0.58599145     0.39700
H402        H  0.09316593  0.28568811  0.61515879     0.34600
C403        C  0.22887351  0.04186479  0.65873479    -0.27100
C404        C  0.25644860  0.03338991  0.63838806    -0.15200
C405        C  0.28449580  0.05003325  0.64546267     0.35400
C406        C  0.28397620  0.07520049  0.67160186    -0.26600
C407        C  0.25586581  0.08520593  0.69022415    -0.15800
C408        C  0.22835705  0.06697664  0.68498300     0.36500
N409        N  0.19976143  0.07411465  0.70598491    -0.90100
H410        H  0.20747392  0.02861786  0.65440850     0.17600
H411        H  0.30613477  0.08637964  0.67746334     0.17600
N412        N  0.31346863  0.04163674  0.62597144    -0.89100
H413        H  0.18144199  0.05939658  0.69753091     0.35000
H414        H  0.20390534  0.06927069  0.73516103     0.40100
H415        H  0.33216873  0.05540935  0.63553101     0.39700
H416        H  0.31052387  0.04690890  0.59664834     0.34600
C417        C  0.27180966  0.38656850  0.95869119    -0.27100
C418        C  0.24817161  0.39076531  0.98675248    -0.15200
C419        C  0.22360410  0.36875787  0.98933883     0.35400
C420        C  0.22271647  0.34365551  0.96318666    -0.26600
C421        C  0.24604626  0.33943758  0.93426460    -0.15800
C422        C  0.27100191  0.36132169  0.93268450     0.36500
N423        N  0.29589007  0.35785777  0.90478205    -0.90100
H424        H  0.29100298  0.40312875  0.95668290     0.17600
H425        H  0.20389196  0.32727244  0.96703820     0.17600
N426        N  0.19137821  0.37793360  0.50697105    -0.89100
H427        H  0.31732164  0.35590911  0.91961500     0.35000
H428        H  0.29648913  0.37825894  0.88791517     0.40100
H429        H  0.19856302  0.37282172  0.53522515     0.39700
H430        H  0.17319430  0.36236069  0.50069560     0.34600
C431        C  0.39951258  0.21524192  0.99829997    -0.27100
C432        C  0.42965826  0.20673619  0.98518294    -0.15200
C433        C  0.43391500  0.19643803  0.94701825     0.35400
C434        C  0.40811708  0.19726427  0.92153950    -0.26600
C435        C  0.37790333  0.20783580  0.93364199    -0.15800
C436        C  0.37331815  0.21452542  0.97352772     0.36500
N437        N  0.34219375  0.22054074  0.98890595    -0.90100
H438        H  0.39695389  0.22646565  0.52798867     0.17600
H439        H  0.41185618  0.18879646  0.89251484     0.17600
N440        N  0.46456869  0.18592767  0.93406294    -0.89100
H441        H  0.34381194  0.23048564  0.51845175     0.35000
H442        H  0.32935717  0.19983149  0.98665708     0.40100
H443        H  0.47029440  0.16543658  0.94932405     0.39700
H444        H  0.46395105  0.17980189  0.90483484     0.34600
C445        C  0.09782804  0.20499630  0.98942861    -0.27100
C446        C  0.06683090  0.20985766  0.97696910    -0.15200
C447        C  0.06067919  0.21422327  0.93732895     0.35400
C448        C  0.08594080  0.21287336  0.91057744    -0.26600
C449        C  0.11745657  0.20813700  0.92291785    -0.15800
C450        C  0.12305723  0.20466584  0.96317975     0.36500
N451        N  0.15460312  0.20124576  0.97777131    -0.90100
H452        H  0.10269101  0.20493986  0.51978462     0.17600
H453        H  0.08059081  0.21639807  0.88044107     0.17600
N454        N  0.02880966  0.21958011  0.92437712    -0.89100
H455        H  0.15605928  0.18015151  0.99322982     0.35000
H456        H  0.15871162  0.21962190  0.99698685     0.40100
H457        H  0.02113162  0.24113526  0.93552951     0.39700
H458        H  0.02810540  0.22170615  0.89427523     0.34600
C459        C  0.28017161  0.06446038  0.93268846    -0.27100
C460        C  0.25109388  0.07651322  0.91891674    -0.15200
C461        C  0.22342054  0.05945674  0.92789244     0.35400
C462        C  0.22475081  0.03517933  0.95568575    -0.26600
C463        C  0.25340780  0.02595825  0.97306490    -0.15800
C464        C  0.28170670  0.03978668  0.95971624     0.36500
N465        N  0.31195978  0.02941027  0.97412274    -0.90100
H466        H  0.30214228  0.07426394  0.92250640     0.17600
H467        H  0.20314294  0.02345192  0.96389003     0.17600
N468        N  0.19408042  0.06660559  0.90877027    -0.89100
H469        H  0.33013829  0.04330907  0.96312623     0.35000
H470        H  0.31609312  0.00678723  0.96352558     0.40100
H471        H  0.19717544  0.06170291  0.87941302     0.39700
H472        H  0.17610087  0.05196323  0.91871616     0.34600
C473        C  0.24279116  0.60870172  0.39743351     0.85700
C474        C  0.21382746  0.63112280  0.40303323    -0.54600
C475        C  0.21431312  0.65742239  0.38022300     0.08600
C476        C  0.24442363  0.65877181  0.35548018     0.19600
C477        C  0.24442637  0.60232061  0.35332185    -0.55300
C478        C  0.24524678  0.62884037  0.33082529     0.08700
C479        C  0.27127920  0.63038616  0.40588388    -0.54800
C480        C  0.27246545  0.65676306  0.38354349     0.09300
H481        H  0.19535825  0.62726295  0.42417261     0.13800
H482        H  0.24509973  0.67920107  0.33870842    -0.00500
H483        H  0.24483126  0.57881695  0.34140343     0.14100
H484        H  0.28845838  0.62565527  0.42838552     0.13900
C485        C  0.14062276  0.71250521  0.39474792     0.85700
C486        C  0.16230946  0.74075369  0.40235610    -0.54600
C487        C  0.18950994  0.74094613  0.38107173     0.08600
C488        C  0.19169011  0.71264920  0.35387532     0.19600
C489        C  0.13467714  0.71385290  0.35021324    -0.55300
C490        C  0.16189184  0.71401292  0.32837061     0.08700
C491        C  0.16184664  0.68298699  0.40028065    -0.54800
C492        C  0.18914920  0.68301833  0.37924126     0.09300
H493        H  0.15616635  0.75884137  0.42310063     0.13800
H494        H  0.21269646  0.71284527  0.33767226    -0.00500
H495        H  0.11158708  0.71464175  0.33693943     0.14100
H496        H  0.15556864  0.66397969  0.41966599     0.13900
C497        C  0.34534796  0.70933289  0.40585598     0.85700
C498        C  0.32304327  0.68104137  0.41023606    -0.54600
C499        C  0.29761168  0.68170891  0.38598328     0.08600
C500        C  0.29747179  0.71106140  0.36011292     0.19600
C501        C  0.35437707  0.71006763  0.36219548    -0.55300
C502        C  0.32906197  0.71075594  0.33776570     0.08700
C503        C  0.32394986  0.73893342  0.41059692    -0.54800
C504        C  0.29810718  0.73966746  0.38709942     0.09300
H505        H  0.32752924  0.66217452  0.43068480     0.13800
H506        H  0.27780388  0.71168242  0.34179604    -0.00500
H507        H  0.37840512  0.71109870  0.35148395     0.14100
H508        H  0.32917880  0.75775069  0.43047580     0.13900
C509        C  0.24289544  0.81288317  0.40412578     0.85700
C510        C  0.27145291  0.79038409  0.41114356    -0.54600
C511        C  0.27285782  0.76519375  0.38681877     0.08600
C512        C  0.24490033  0.76515470  0.35864070     0.19600
C513        C  0.24475287  0.82166941  0.36056863    -0.55300
C514        C  0.24588035  0.79641076  0.33623306     0.08700
C515        C  0.21375936  0.79099919  0.40730172    -0.54800
C516        C  0.21468829  0.76582203  0.38321771     0.09300
H517        H  0.28875866  0.79427901  0.43363410     0.13800
H518        H  0.24557849  0.74548343  0.34067452    -0.00500
H519        H  0.24521437  0.84575199  0.35034188     0.14100
H520        H  0.19439466  0.79394354  0.42723522     0.13900
C521        C  0.24961595  0.61305335  0.21922458     0.85700
C522        C  0.27850176  0.63504979  0.21545103    -0.54600
C523        C  0.27773777  0.66023850  0.23949529     0.08600
C524        C  0.24755213  0.66111028  0.26415404     0.19600
C525        C  0.24774562  0.60464606  0.26283248    -0.55300
C526        C  0.24663219  0.63000152  0.28692665     0.08700
C527        C  0.22102966  0.63564931  0.21166126    -0.54800
C528        C  0.21964985  0.66113952  0.23567364     0.09300
H529        H  0.29716127  0.63212996  0.19435258     0.13800
H530        H  0.24701310  0.68073785  0.28219936    -0.00500
H531        H  0.24763564  0.58062794  0.27331046     0.14100
H532        H  0.20397961  0.63198483  0.18883059     0.13900
C533        C  0.14787788  0.71851816  0.21622672     0.85700
C534        C  0.16962115  0.68925423  0.21003702    -0.54600
C535        C  0.19486361  0.68732124  0.23465175     0.08600
C536        C  0.19552270  0.71549264  0.26239163     0.19600
C537        C  0.13866323  0.71751063  0.25972907    -0.55300
C538        C  0.16380962  0.71569080  0.28448289     0.08700
C539        C  0.17076533  0.74670731  0.21286950    -0.54800
C540        C  0.19592454  0.74529620  0.23716261     0.09300
H541        H  0.16506504  0.67174119  0.18814116     0.13800
H542        H  0.21501078  0.71452077  0.28095762    -0.00500
H543        H  0.11429498  0.71808376  0.26960269     0.14100
H544        H  0.16814015  0.76622293  0.19332308     0.13900
C545        C  0.35196209  0.71301756  0.22763719     0.85700
C546        C  0.33103633  0.74268839  0.22254721    -0.54600
C547        C  0.30384859  0.74275393  0.24383886     0.08600
C548        C  0.30105104  0.71312564  0.26881006     0.19600
C549        C  0.35805979  0.71150621  0.27207841    -0.55300
C550        C  0.33088939  0.71165037  0.29401544     0.08700
C551        C  0.33003294  0.68501675  0.21992868    -0.54800
C552        C  0.30295061  0.68497061  0.24141370     0.09300
H553        H  0.33761194  0.76176234  0.20344400     0.13800
H554        H  0.28007138  0.71315036  0.28509060    -0.00500
H555        H  0.38119640  0.71068565  0.28519930     0.14100
H556        H  0.33592639  0.66696105  0.19903490     0.13900
C557        C  0.25173058  0.81766966  0.22599993     0.85700
C558        C  0.22312957  0.79644210  0.21695137    -0.54600
C559        C  0.22131370  0.77000627  0.23946877     0.08600
C560        C  0.24890943  0.76764296  0.26792300     0.19600
C561        C  0.24945717  0.82416641  0.27004482    -0.55300
C562        C  0.24799631  0.79763643  0.29249033     0.08700
C563        C  0.28047924  0.79489241  0.22130328    -0.54800
C564        C  0.27923395  0.76865056  0.24369690     0.09300
H565        H  0.20632300  0.80193539  0.19427957     0.13800
H566        H  0.24777485  0.74707416  0.28440552    -0.00500
H567        H  0.24914045  0.84767286  0.28195789     0.14100
H568        H  0.29929032  0.79783960  0.20054103     0.13900
O569        O  0.02818652  0.74068922  0.09477483    -0.72600
O570        O  0.46084835  0.73455846  0.02414866    -0.72800
O571        O  0.46490684  0.73773234  0.10102470    -0.72700
O572        O  0.02429136  0.73722829  0.01734886    -0.72700
O573        O  0.02846638  0.68650090  0.02275985    -0.72600
O574        O  0.46633487  0.68671410  0.10282294    -0.72700
O575        O  0.46510428  0.68364662  0.02528290    -0.72600
O576        O  0.02955725  0.68993462  0.10015797    -0.72800
V577        V  0.99462967  0.73684288  0.05882519     1.35200
V578        V  0.99726630  0.68795128  0.06241927     1.35200
C579        C  0.04025040  0.71629013  0.10991102     0.76600
C580        C  0.45161605  0.70815590  0.01256681     0.76700
C581        C  0.45516542  0.71233571  0.11543864     0.76600
C582        C  0.03685258  0.71168125  0.00649414     0.76500
O583        O  0.22484935  0.93081604  0.02619977    -0.72600
O584        O  0.22963124  0.99724587  0.09839650    -0.72800
O585        O  0.22741186  0.99366951  0.02055955    -0.72700
O586        O  0.22738161  0.93423170  0.10349571    -0.72700
O587        O  0.27852106  0.93197136  0.10049729    -0.72600
O588        O  0.27856513  0.99102046  0.01849035    -0.72700
O589        O  0.28082513  0.99469528  0.09595986    -0.72000
O590        O  0.27607773  0.92820481  0.02322121    -0.72800
V591        V  0.22829000  0.96401079  0.06209683     1.35200
V592        V  0.27748891  0.96154963  0.05961181     1.35200
C593        C  0.24953596  0.91786841  0.01275415     0.76600
C594        C  0.25308743  0.50684453  0.11156330     0.76700
C595        C  0.25006157  0.50273307  0.00661500     0.76600
C596        C  0.25315483  0.92251263  0.11572653     0.76500
C597        C  0.22623239  0.89108800  0.16751334    -0.27100
C598        C  0.25382253  0.89782999  0.14639275    -0.15200
C599        C  0.28182575  0.88070432  0.15492143     0.35400
C600        C  0.28119317  0.85686651  0.18292180    -0.26600
C601        C  0.25288787  0.84764670  0.20107495    -0.15800
C602        C  0.22566152  0.86661893  0.19498852     0.36500
N603        N  0.19728768  0.86110913  0.21656936    -0.90100
H604        H  0.20482198  0.90469399  0.16252560     0.17600
H605        H  0.30339344  0.84574075  0.19011050     0.17600
N606        N  0.31087862  0.88692102  0.13465947    -0.89100
H607        H  0.17905931  0.85682569  0.19700212     0.35000
H608        H  0.19154724  0.88159237  0.23170623     0.40100
H609        H  0.30795340  0.87955226  0.10610362     0.39700
H610        H  0.32955794  0.87343577  0.14582634     0.34600
C611        C  0.41165365  0.71018025  0.21147065    -0.27100
C612        C  0.37991169  0.71298762  0.19928738    -0.15200
C613        C  0.37384423  0.71538034  0.15899514     0.35400
C614        C  0.39884441  0.71538706  0.13247074    -0.26600
C615        C  0.43008342  0.71261263  0.14483857    -0.15800
C616        C  0.43676763  0.70996375  0.18452333     0.36500
N617        N  0.46899826  0.70684376  0.19719161    -0.90100
H618        H  0.41735958  0.70792210  0.24168363     0.17600
H619        H  0.39375112  0.71729574  0.10185256     0.17600
N620        N  0.34209462  0.71770206  0.14473523    -0.89100
H621        H  0.46999898  0.70488550  0.22730094     0.35000
H622        H  0.48063789  0.72754811  0.18984157     0.40100
H623        H  0.33833816  0.69891497  0.12601230     0.39700
H624        H  0.33991758  0.73850681  0.12880058     0.34600
C625        C  0.07182551  0.69352265  0.16408349    -0.27100
C626        C  0.06654545  0.71823314  0.13789409    -0.15200
C627        C  0.08718825  0.74383201  0.13792570     0.35400
C628        C  0.11276513  0.74416817  0.16350302    -0.26600
C629        C  0.11894084  0.71904949  0.18934866    -0.15800
C630        C  0.09753160  0.69374921  0.18968426     0.36500
N631        N  0.10193908  0.66796145  0.21587467    -0.90100
H632        H  0.05595148  0.67374653  0.16468097     0.17600
H633        H  0.12737591  0.76454479  0.16191762     0.17600
N634        N  0.08301294  0.76924131  0.11108550    -0.89100
H635        H  0.08164487  0.66619614  0.23304831     0.35000
H636        H  0.10414127  0.64740527  0.19963586     0.40100
H637        H  0.10347622  0.77081791  0.09417472     0.39700
H638        H  0.08056574  0.79003592  0.12681576     0.34600
C639        C  0.22504489  0.54103116  0.15936810    -0.27100
C640        C  0.25353925  0.53219106  0.14113875    -0.15200
C641        C  0.28155804  0.54766617  0.15166297     0.35400
C642        C  0.27992048  0.57289831  0.17764691    -0.26600
C643        C  0.25091548  0.58374734  0.19334709    -0.15800
C644        C  0.22355782  0.56589140  0.18599944     0.36500
N645        N  0.19422679  0.57306669  0.20536145    -0.90100
H646        H  0.20364527  0.52836286  0.15296527     0.17600
H647        H  0.30194027  0.58323384  0.18622291     0.17600
N648        N  0.31164663  0.53803877  0.13589964    -0.89100
H649        H  0.17626845  0.55829922  0.19593358     0.35000
H650        H  0.19733627  0.56830105  0.23475794     0.40100
H651        H  0.31719885  0.51602735  0.14764243     0.39700
H652        H  0.32956594  0.55308805  0.14475102     0.34600
C653        C  0.27161650  0.88545929  0.45960209    -0.27100
C654        C  0.24626672  0.89189999  0.48472393    -0.15200
C655        C  0.21879352  0.87354317  0.48234357     0.35400
C656        C  0.21735708  0.84928690  0.45514225    -0.26600
C657        C  0.24324946  0.84159756  0.43095709    -0.15800
C658        C  0.27026054  0.86086176  0.43274375     0.36500
N659        N  0.29657962  0.85543436  0.40735794    -0.90100
H660        H  0.29265138  0.89970983  0.46060016     0.17600
H661        H  0.19551251  0.83681528  0.45369624     0.17600
N662        N  0.19719070  0.87448522  0.01632610    -0.89100
H663        H  0.31665208  0.85126389  0.42425247     0.35000
H664        H  0.30026442  0.87589320  0.39125904     0.40100
H665        H  0.20763296  0.87038119  0.04326361     0.39700
H666        H  0.17952424  0.85771706  0.01329237     0.34600
C667        C  0.39516636  0.71691582  0.49832975    -0.27100
C668        C  0.42490992  0.70673386  0.48558508    -0.15200
C669        C  0.42847760  0.69439496  0.44823297     0.35400
C670        C  0.40256264  0.69513931  0.42291543    -0.26600
C671        C  0.37287321  0.70744698  0.43450289    -0.15800
C672        C  0.36876546  0.71589016  0.47393096     0.36500
N673        N  0.33790097  0.72317659  0.48928102    -0.90100
H674        H  0.39184613  0.72233077  0.02835204     0.17600
H675        H  0.40571707  0.68528449  0.39444487     0.17600
N676        N  0.45855415  0.68189308  0.43588028    -0.89100
H677        H  0.33876059  0.72640757  0.01828176     0.35000
H678        H  0.32453661  0.70273296  0.48816318     0.40100
H679        H  0.46334888  0.66186750  0.45248504     0.39700
H680        H  0.45747985  0.67447967  0.40713973     0.34600
C681        C  0.09334045  0.71075495  0.48978100    -0.27100
C682        C  0.06209476  0.71311297  0.47731398    -0.15200
C683        C  0.05554182  0.71549243  0.43753183     0.35400
C684        C  0.08075201  0.71499715  0.41064794    -0.26600
C685        C  0.11249935  0.71258729  0.42297415    -0.15800
C686        C  0.11842330  0.71074052  0.46333430     0.36500
N687        N  0.15014054  0.70894886  0.47776278    -0.90100
H688        H  0.09804308  0.70513678  0.02056782     0.17600
H689        H  0.07512882  0.71676676  0.38036003     0.17600
N690        N  0.02332782  0.71782584  0.42461883    -0.89100
H691        H  0.15250676  0.68835309  0.49406962     0.35000
H692        H  0.15361676  0.72800240  0.49615741     0.40100
H693        H  0.01391781  0.73904449  0.43479584     0.39700
H694        H  0.02238149  0.71890516  0.39444932     0.34600
C695        C  0.27221457  0.56449547  0.43204376    -0.27100
C696        C  0.24297945  0.57836510  0.42186857    -0.15200
C697        C  0.21508550  0.56274113  0.43367410     0.35400
C698        C  0.21708792  0.53807739  0.46089986    -0.26600
C699        C  0.24638374  0.52691858  0.47466082    -0.15800
C700        C  0.27431917  0.53923459  0.45817619     0.36500
N701        N  0.30485222  0.52644309  0.46816883    -0.90100
H702        H  0.29385238  0.57350576  0.41974374     0.17600
H703        H  0.19551734  0.52749941  0.47138800     0.17600
N704        N  0.18491980  0.57124248  0.41748940    -0.89100
H705        H  0.32293271  0.53902023  0.45472336     0.35000
H706        H  0.30615049  0.50369457  0.45702494     0.40100
H707        H  0.18590628  0.56643355  0.38789914     0.39700
H708        H  0.16697839  0.55733902  0.42905459     0.34600
C709        C  0.24477215  0.60764726  0.89668139     0.85700
C710        C  0.21545951  0.62962717  0.90265632    -0.54600
C711        C  0.21545095  0.65609329  0.88005142     0.08600
C712        C  0.24542008  0.65797056  0.85512779     0.19600
C713        C  0.24623055  0.60152193  0.85248921    -0.55300
C714        C  0.24649173  0.62820626  0.83021432     0.08700
C715        C  0.27292140  0.62970045  0.90506905    -0.54800
C716        C  0.27361757  0.65615440  0.88292661     0.09300
H717        H  0.19707168  0.62526058  0.92376903     0.13800
H718        H  0.24579510  0.67851199  0.83856163    -0.00500
H719        H  0.24691102  0.57809067  0.84036601     0.14100
H720        H  0.29019889  0.62524706  0.92751844     0.13900
C721        C  0.14125501  0.71048474  0.89539275     0.85700
C722        C  0.16284749  0.73870646  0.90365765    -0.54600
C723        C  0.18996573  0.73942338  0.88222469     0.08600
C724        C  0.19229644  0.71144289  0.85450708     0.19600
C725        C  0.13531601  0.71237646  0.85088803    -0.55300
C726        C  0.16247616  0.71296275  0.82903714     0.08700
C727        C  0.16263019  0.68096516  0.90033088    -0.54800
C728        C  0.18997668  0.68145387  0.87936312     0.09300
H729        H  0.15669110  0.75642243  0.92488107     0.13800
H730        H  0.21324771  0.71196891  0.83822306    -0.00500
H731        H  0.11224525  0.71307042  0.83757956     0.14100
H732        H  0.15646793  0.66163820  0.91928825     0.13900
C733        C  0.34608032  0.70905936  0.90526413     0.85700
C734        C  0.32402565  0.68060781  0.90945352    -0.54600
C735        C  0.29848619  0.68128868  0.88541379     0.08600
C736        C  0.29799682  0.71078653  0.85985041     0.19600
C737        C  0.35492464  0.71012338  0.86154473    -0.55300
C738        C  0.32947987  0.71079946  0.83729395     0.08700
C739        C  0.32453388  0.73845782  0.91048493    -0.54800
C740        C  0.29859646  0.73919505  0.88716289     0.09300
H741        H  0.32878929  0.66161239  0.92962487     0.13800
H742        H  0.27821408  0.71135974  0.84168226    -0.00500
H743        H  0.37886849  0.71136651  0.85062911     0.14100
H744        H  0.32967320  0.75705164  0.93072369     0.13900
C745        C  0.24290469  0.81167153  0.90589059     0.85700
C746        C  0.27173346  0.78943249  0.91215622    -0.54600
C747        C  0.27312682  0.76445838  0.88753660     0.08600
C748        C  0.24498015  0.76440292  0.85970515     0.19600
C749        C  0.24423042  0.82089055  0.86240585    -0.55300
C750        C  0.24553078  0.79588514  0.83770116     0.08700
C751        C  0.21382417  0.78965239  0.90886797    -0.54800
C752        C  0.21493725  0.76454121  0.88462220     0.09300
H753        H  0.28928070  0.79342053  0.93434423     0.13800
H754        H  0.24572459  0.74492346  0.84144579    -0.00500
H755        H  0.24433502  0.84506257  0.85248151     0.14100
H756        H  0.19390723  0.79298382  0.92788357     0.13900
C757        C  0.24999247  0.61328942  0.71843184     0.85700
C758        C  0.27883965  0.63540247  0.71460260    -0.54600
C759        C  0.27809321  0.66049857  0.73886591     0.08600
C760        C  0.24809048  0.66102151  0.76385951     0.19600
C761        C  0.24849047  0.60456850  0.76195593    -0.55300
C762        C  0.24748919  0.62972964  0.78631975     0.08700
C763        C  0.22131874  0.63584678  0.71138136    -0.54800
C764        C  0.22002693  0.66116045  0.73563233     0.09300
H765        H  0.29742912  0.63266382  0.69338012     0.13800
H766        H  0.24755219  0.68051271  0.78210653    -0.00500
H767        H  0.24854522  0.58047813  0.77218948     0.14100
H768        H  0.20414588  0.63228320  0.68866114     0.13900
C769        C  0.14812204  0.71848300  0.71692968     0.85700
C770        C  0.16993853  0.68934631  0.71040087    -0.54600
C771        C  0.19523756  0.68731961  0.73491724     0.08600
C772        C  0.19589590  0.71527730  0.76295395     0.19600
C773        C  0.13900819  0.71711323  0.76048536    -0.55300
C774        C  0.16424542  0.71514919  0.78515580     0.08700
C775        C  0.17079581  0.74684392  0.71401005    -0.54800
C776        C  0.19607024  0.74528790  0.73808324     0.09300
H777        H  0.16534397  0.67194951  0.68837732     0.13800
H778        H  0.21544810  0.71424671  0.78146141    -0.00500
H779        H  0.11466539  0.71754061  0.77044677     0.14100
H780        H  0.16767403  0.76685183  0.69535874     0.13900
C781        C  0.35185416  0.71400460  0.72705251     0.85700
C782        C  0.33080625  0.74366597  0.72260988    -0.54600
C783        C  0.30372218  0.74339799  0.74406841     0.08600
C784        C  0.30113938  0.71344855  0.76854314     0.19600
C785        C  0.35813854  0.71206944  0.77143695    -0.55300
C786        C  0.33108031  0.71189262  0.79354270     0.08700
C787        C  0.33000415  0.68599783  0.71897038    -0.54800
C788        C  0.30306935  0.68552421  0.74072347     0.09300
H789        H  0.33725124  0.76303102  0.70388922     0.13800
H790        H  0.28024265  0.71322674  0.78496211    -0.00500
H791        H  0.38132044  0.71137995  0.78443436     0.14100
H792        H  0.33587611  0.66819887  0.69773265     0.13900
C793        C  0.25114249  0.81826472  0.72772766     0.85700
C794        C  0.22278717  0.79679271  0.71841620    -0.54600
C795        C  0.22121942  0.77018935  0.74065266     0.08600
C796        C  0.24885313  0.76782908  0.76898648     0.19600
C797        C  0.24882070  0.82434411  0.77187404    -0.55300
C798        C  0.24764637  0.79758162  0.79396409     0.08700
C799        C  0.28011885  0.79583309  0.72269205    -0.54800
C800        C  0.27910293  0.76930321  0.74465056     0.09300
H801        H  0.20600027  0.80219948  0.69570316     0.13800
H802        H  0.24792216  0.74711104  0.78520428    -0.00500
H803        H  0.24825398  0.84774001  0.78410565     0.14100
H804        H  0.29887806  0.79931011  0.70195358     0.13900
O805        O  0.02826463  0.74127533  0.59578178    -0.72600
O806        O  0.46135737  0.73534956  0.52301575    -0.72800
O807        O  0.46462506  0.73916806  0.59986577    -0.72700
O808        O  0.02465047  0.73857819  0.51830291    -0.72700
O809        O  0.02841942  0.68774853  0.52247689    -0.72600
O810        O  0.46650771  0.68819854  0.60304574    -0.72700
O811        O  0.46486296  0.68442586  0.52557302    -0.72600
O812        O  0.02994952  0.69044885  0.60000099    -0.72800
V813        V  0.99481638  0.73777666  0.55954844     1.35200
V814        V  0.99744592  0.68885090  0.56243908     1.35200
C815        C  0.04052505  0.71671438  0.61030498     0.76600
C816        C  0.45171323  0.70887510  0.51217230     0.76700
C817        C  0.45505337  0.71394018  0.61489354     0.76600
C818        C  0.03694724  0.71311382  0.50676899     0.76500
O819        O  0.22394236  0.93084276  0.52651599    -0.72600
O820        O  0.22872097  0.99703635  0.59891585    -0.72800
O821        O  0.22657566  0.99363258  0.52116851    -0.72700
O822        O  0.22641048  0.93410547  0.60412462    -0.72700
O823        O  0.27754655  0.93158402  0.60109540    -0.72600
O824        O  0.27772151  0.99086322  0.51927680    -0.72700
O825        O  0.27989967  0.99434977  0.59671079    -0.72000
O826        O  0.27513156  0.92806561  0.52364945    -0.72800
V827        V  0.22738153  0.96386030  0.56262804     1.35200
V828        V  0.27656699  0.96126982  0.56025194     1.35200
C829        C  0.24858007  0.91801453  0.51277090     0.76600
C830        C  0.25156697  0.50693975  0.61100517     0.76700
C831        C  0.24725694  0.50297026  0.50634173     0.76600
C832        C  0.25216076  0.92253218  0.61668072     0.76500
C833        C  0.22490745  0.89101733  0.66830812    -0.27100
C834        C  0.25279190  0.89853292  0.64821014    -0.15200
C835        C  0.28105674  0.88267314  0.65851188     0.35400
C836        C  0.28047456  0.85849772  0.68599209    -0.26600
C837        C  0.25202777  0.84842210  0.70307318    -0.15800
C838        C  0.22446086  0.86674083  0.69609901     0.36500
N839        N  0.19587439  0.86075599  0.71703998    -0.90100
H840        H  0.20320078  0.90384880  0.66229211     0.17600
H841        H  0.30291583  0.84801515  0.69371322     0.17600
N842        N  0.31062191  0.89052946  0.64080261    -0.89100
H843        H  0.17807367  0.85595954  0.69708024     0.35000
H844        H  0.18944295  0.88122243  0.73181566     0.40100
H845        H  0.31974367  0.87044421  0.62730868     0.39700
H846        H  0.32632195  0.89699709  0.66257864     0.34600
C847        C  0.41146259  0.71077069  0.71074322    -0.27100
C848        C  0.37976565  0.71437220  0.69866504    -0.15200
C849        C  0.37373677  0.71777600  0.65846870     0.35400
C850        C  0.39876320  0.71812797  0.63197148    -0.26600
C851        C  0.42995294  0.71447484  0.64425597    -0.15800
C852        C  0.43657069  0.71074937  0.68382133     0.36500
N853        N  0.46874202  0.70675441  0.69639030    -0.90100
H854        H  0.41714267  0.70757314  0.74083620     0.17600
H855        H  0.39371439  0.72079067  0.60142265     0.17600
N856        N  0.34201259  0.72070791  0.64426988    -0.89100
H857        H  0.46970164  0.70406662  0.72641926     0.35000
H858        H  0.48075583  0.72740854  0.68978959     0.40100
H859        H  0.33809897  0.70241085  0.62487866     0.39700
H860        H  0.34003109  0.74189454  0.62907680     0.34600
C861        C  0.07171356  0.69402122  0.66495277    -0.27100
C862        C  0.06694765  0.71840777  0.63816466    -0.15200
C863        C  0.08830980  0.74339399  0.63731469     0.35400
C864        C  0.11394279  0.74358670  0.66282717    -0.26600
C865        C  0.11928804  0.71906051  0.68980884    -0.15800
C866        C  0.09740771  0.69416080  0.69062453     0.36500
N867        N  0.10134964  0.66866232  0.71733995    -0.90100
H868        H  0.05540936  0.67460490  0.66600052     0.17600
H869        H  0.12942206  0.76322413  0.65998842     0.17600
N870        N  0.08484699  0.76823196  0.60953460    -0.89100
H871        H  0.08100235  0.66746262  0.73450281     0.35000
H872        H  0.10323102  0.64786218  0.70152651     0.40100
H873        H  0.10533318  0.76880282  0.59254784     0.39700
H874        H  0.08303356  0.78945814  0.62448182     0.34600
C875        C  0.22438870  0.54125876  0.65930902    -0.27100
C876        C  0.25252393  0.53244714  0.64029383    -0.15200
C877        C  0.28067602  0.54817805  0.64965808     0.35400
C878        C  0.27951113  0.57349878  0.67553296    -0.26600
C879        C  0.25085612  0.58412372  0.69233056    -0.15800
C880        C  0.22337817  0.56618373  0.68584801     0.36500
N881        N  0.19437750  0.57337320  0.70594719    -0.90100
H882        H  0.20291091  0.52848621  0.65363690     0.17600
H883        H  0.30165284  0.58404469  0.68316005     0.17600
N884        N  0.31041665  0.53874912  0.63277097    -0.89100
H885        H  0.17624109  0.55863775  0.69696167     0.35000
H886        H  0.19795689  0.56857707  0.73525303     0.40100
H887        H  0.31651291  0.51687152  0.64449966     0.39700
H888        H  0.32841283  0.55403126  0.64074495     0.34600
C889        C  0.27122283  0.88582501  0.95843314    -0.27100
C890        C  0.24726427  0.89108864  0.98580790    -0.15200
C891        C  0.22139987  0.87054755  0.98733636     0.35400
C892        C  0.21974957  0.84564067  0.96103609    -0.26600
C893        C  0.24369181  0.84003299  0.93325431    -0.15800
C894        C  0.26966094  0.86074504  0.93230823     0.36500
N895        N  0.29480092  0.85622825  0.90495426    -0.90100
H896        H  0.29126525  0.90141082  0.95706267     0.17600
H897        H  0.19965810  0.83066516  0.96370194     0.17600
N898        N  0.19252330  0.87907710  0.50809471    -0.89100
H899        H  0.31590768  0.85329299  0.92025922     0.35000
H900        H  0.29658002  0.87660178  0.88818303     0.40100
H901        H  0.20009684  0.87355244  0.53607711     0.39700
H902        H  0.17385369  0.86399600  0.50209962     0.34600
C903        C  0.39500936  0.71523061  0.99852504    -0.27100
C904        C  0.42506020  0.70614602  0.98567999    -0.15200
C905        C  0.42927452  0.69520043  0.94778115     0.35400
C906        C  0.40358168  0.69606748  0.92218246    -0.26600
C907        C  0.37349347  0.70714930  0.93399614    -0.15800
C908        C  0.36886627  0.71439014  0.97372469     0.36500
N909        N  0.33775142  0.72079794  0.98891374    -0.90100
H910        H  0.39241521  0.72497110  0.52784134     0.17600
H911        H  0.40726987  0.68719121  0.89333326     0.17600
N912        N  0.45978278  0.68398515  0.93519967    -0.89100
H913        H  0.33925364  0.72936367  0.51844946     0.35000
H914        H  0.32478282  0.70014335  0.98703400     0.40100
H915        H  0.46505533  0.66356396  0.95084003     0.39700
H916        H  0.45916792  0.67753036  0.90608532     0.34600
C917        C  0.09326455  0.70755991  0.98990875    -0.27100
C918        C  0.06218411  0.71136782  0.97725365    -0.15200
C919        C  0.05599126  0.71485138  0.93750884     0.35400
C920        C  0.08135556  0.71401762  0.91086793    -0.26600
C921        C  0.11295464  0.71027465  0.92338224    -0.15800
C922        C  0.11853786  0.70734235  0.96371218     0.36500
N923        N  0.15009545  0.70433178  0.97838856    -0.90100
H924        H  0.09837758  0.70917217  0.52045574     0.17600
H925        H  0.07595811  0.71681665  0.88063824     0.17600
N926        N  0.02396529  0.71863513  0.92435015    -0.89100
H927        H  0.15174198  0.68334354  0.99404298     0.35000
H928        H  0.15399582  0.72286555  0.99744000     0.40100
H929        H  0.01528375  0.73997596  0.93505637     0.39700
H930        H  0.02326038  0.72032666  0.89420909     0.34600
C931        C  0.27500247  0.56433926  0.93238222    -0.27100
C932        C  0.24558629  0.57727233  0.92106283    -0.15200
C933        C  0.21796051  0.56095726  0.93217419     0.35400
C934        C  0.22008728  0.53657261  0.95973260    -0.26600
C935        C  0.24935074  0.52644332  0.97469577    -0.15800
C936        C  0.27727961  0.53948201  0.95909255     0.36500
N937        N  0.30793819  0.52795408  0.97067415    -0.90100
H938        H  0.29663865  0.57374812  0.92058122     0.17600
H939        H  0.19861377  0.52543638  0.96959392     0.17600
N940        N  0.18791734  0.56864460  0.91510328    -0.89100
H941        H  0.32591368  0.54108902  0.95786709     0.35000
H942        H  0.31046714  0.50515448  0.95995163     0.40100
H943        H  0.18956279  0.56367707  0.88559584     0.39700
H944        H  0.17012496  0.55436897  0.92631239     0.34600
C945        C  0.74902249  0.10696637  0.39510142     0.85700
C946        C  0.71964984  0.12876266  0.40126452    -0.54600
C947        C  0.71954896  0.15536519  0.37892438     0.08600
C948        C  0.74948376  0.15751025  0.35393408     0.19600
C949        C  0.75042627  0.10107015  0.35084193    -0.55300
C950        C  0.75060765  0.12788604  0.32877477     0.08700
C951        C  0.77711575  0.12911931  0.40360505    -0.54800
C952        C  0.77772314  0.15566657  0.38164933     0.09300
H953        H  0.70119556  0.12399269  0.42217769     0.13800
H954        H  0.74980345  0.17813556  0.33751861    -0.00500
H955        H  0.75112845  0.07770581  0.33852807     0.14100
H956        H  0.79431314  0.12488138  0.42617361     0.13900
C957        C  0.64528994  0.20944307  0.39501858     0.85700
C958        C  0.66686377  0.23761930  0.40354620    -0.54600
C959        C  0.69393993  0.23852879  0.38203834     0.08600
C960        C  0.69628981  0.21077703  0.35409180     0.19600
C961        C  0.63930600  0.21167601  0.35055577    -0.55300
C962        C  0.66648599  0.21248811  0.32871556     0.08700
C963        C  0.66667993  0.17989394  0.39953686    -0.54800
C964        C  0.69401292  0.18061574  0.37856429     0.09300
H965        H  0.66062643  0.25524885  0.42484328     0.13800
H966        H  0.71722053  0.21148452  0.33782698    -0.00500
H967        H  0.61620681  0.21242840  0.33731192     0.14100
H968        H  0.66054867  0.16038250  0.41821796     0.13900
C969        C  0.85005455  0.20875411  0.40444187     0.85700
C970        C  0.82806974  0.18020552  0.40842276    -0.54600
C971        C  0.80250853  0.18090935  0.38437703     0.08600
C972        C  0.80194875  0.21053050  0.35902584     0.19600
C973        C  0.85888656  0.21003534  0.36075537    -0.55300
C974        C  0.83348028  0.21066330  0.33649131     0.08700
C975        C  0.82839514  0.23806636  0.40989078    -0.54800
C976        C  0.80242906  0.23883142  0.38661842     0.09300
H977        H  0.83291587  0.16112641  0.42844215     0.13800
H978        H  0.78217715  0.21109367  0.34080235    -0.00500
H979        H  0.88282568  0.21137987  0.34985356     0.14100
H980        H  0.83345463  0.25659286  0.43025580     0.13900
C981        C  0.74621375  0.31110115  0.40569938     0.85700
C982        C  0.77514149  0.28888261  0.41220611    -0.54600
C983        C  0.77681135  0.26400586  0.38730751     0.08600
C984        C  0.74875779  0.26396011  0.35933551     0.19600
C985        C  0.74790863  0.32041329  0.36230703    -0.55300
C986        C  0.74943489  0.29549780  0.33751295     0.08700
C987        C  0.71747695  0.28872592  0.40871287    -0.54800
C988        C  0.71865891  0.26386794  0.38418737     0.09300
H989        H  0.79247512  0.29272274  0.43467615     0.13800
H990        H  0.74958678  0.24454741  0.34098172    -0.00500
H991        H  0.74817486  0.34462207  0.35252438     0.14100
H992        H  0.69838189  0.29095363  0.42918171     0.13900
C993        C  0.75381548  0.11361061  0.21684749     0.85700
C994        C  0.78271103  0.13564403  0.21305819    -0.54600
C995        C  0.78212808  0.16058160  0.23756466     0.08600
C996        C  0.75216847  0.16108780  0.26267100     0.19600
C997        C  0.75240118  0.10466593  0.26030452    -0.55300
C998        C  0.75152217  0.12967867  0.28488187     0.08700
C999        C  0.72517163  0.13629782  0.21008357    -0.54800
C1000       C  0.72401732  0.16148541  0.23456786     0.09300
H1001       H  0.80123875  0.13291595  0.19173792     0.13800
H1002       H  0.75171410  0.18047458  0.28108101    -0.00500
H1003       H  0.75240832  0.08052176  0.27034052     0.14100
H1004       H  0.70790976  0.13290337  0.18742231     0.13900
C1005       C  0.65211702  0.21912679  0.21694213     0.85700
C1006       C  0.67389954  0.19000779  0.20988105    -0.54600
C1007       C  0.69924442  0.18769833  0.23430334     0.08600
C1008       C  0.69998398  0.21543706  0.26269368     0.19600
C1009       C  0.64309738  0.21740053  0.26041822    -0.55300
C1010       C  0.66833598  0.21516770  0.28494246     0.08700
C1011       C  0.67492437  0.24733977  0.21399081    -0.54800
C1012       C  0.70018123  0.24561360  0.23808229     0.09300
H1013       H  0.66928804  0.17285843  0.18757242     0.13800
H1014       H  0.71957836  0.21422556  0.28113887    -0.00500
H1015       H  0.61876536  0.21772752  0.27043061     0.14100
H1016       H  0.67230045  0.26693675  0.19455835     0.13900
C1017       C  0.85620912  0.21373981  0.22631594     0.85700
C1018       C  0.83522093  0.24347968  0.22194209    -0.54600
C1019       C  0.80807330  0.24319363  0.24337429     0.08600
C1020       C  0.80539424  0.21321317  0.26765931     0.19600
C1021       C  0.86235951  0.21171789  0.27072833    -0.55300
C1022       C  0.83523870  0.21159509  0.29274014     0.08700
C1023       C  0.83426358  0.18584395  0.21802769    -0.54800
C1024       C  0.80727813  0.18540678  0.23969218     0.09300
H1025       H  0.84178116  0.26289470  0.20336748     0.13800
H1026       H  0.78451318  0.21298569  0.28406366    -0.00500
H1027       H  0.88551317  0.21106719  0.28380144     0.14100
H1028       H  0.84008586  0.16810464  0.19669283     0.13900
C1029       C  0.75568997  0.31820518  0.22769161     0.85700
C1030       C  0.72714938  0.29697466  0.21847848    -0.54600
C1031       C  0.72556158  0.27026356  0.24050224     0.08600
C1032       C  0.75326096  0.26766033  0.26869527     0.19600
C1033       C  0.75350714  0.32416297  0.27188591    -0.55300
C1034       C  0.75211811  0.29733122  0.29383158     0.08700
C1035       C  0.78454976  0.29565028  0.22245223    -0.54800
C1036       C  0.78348161  0.26911013  0.24426325     0.09300
H1037       H  0.71013215  0.30278365  0.19615322     0.13800
H1038       H  0.75228381  0.24688867  0.28479373    -0.00500
H1039       H  0.75294886  0.34751965  0.28423052     0.14100
H1040       H  0.80331259  0.29884187  0.20172358     0.13900
O1041       O  0.53332538  0.24156391  0.09425052    -0.72600
O1042       O  0.96554038  0.23395941  0.02356939    -0.72800
O1043       O  0.97020368  0.23766686  0.10032005    -0.72700
O1044       O  0.52932200  0.23723965  0.01684161    -0.72700
O1045       O  0.53311623  0.18655849  0.02315578    -0.72600
O1046       O  0.97067891  0.18664183  0.10199056    -0.72700
O1047       O  0.97002764  0.18305956  0.02444997    -0.72600
O1048       O  0.53431328  0.19087854  0.10046108    -0.72800
V1049       V  0.49969819  0.23754652  0.05844278     1.35200
V1050       V  0.50196504  0.18868778  0.06281264     1.35200
C1051       C  0.54513261  0.21726869  0.10990091     0.76600
C1052       C  0.95643866  0.20755642  0.01184900     0.76700
C1053       C  0.95992370  0.21243643  0.11461593     0.76600
C1054       C  0.54170407  0.21146818  0.00643648     0.76500
O1055       O  0.72377509  0.42945670  0.02718845    -0.72600
O1056       O  0.72702472  0.49583032  0.09971901    -0.72800
O1057       O  0.72420881  0.49246420  0.02184012    -0.72700
O1058       O  0.72688731  0.43289452  0.10459489    -0.72700
O1059       O  0.77804644  0.43249519  0.10107967    -0.72600
O1060       O  0.77536724  0.49129576  0.01891957    -0.72700
O1061       O  0.77818217  0.49520639  0.09638288    -0.72000
O1062       O  0.77498343  0.42834705  0.02384708    -0.72800
V1063       V  0.72643948  0.46271082  0.06323160     1.35200
V1064       V  0.77563463  0.46187694  0.06010869     1.35200
C1065       C  0.74873373  0.41719875  0.01348516     0.76600
C1066       C  0.75558843  0.00666312  0.11029071     0.76700
C1067       C  0.75341991  0.00172615  0.00553279     0.76600
C1068       C  0.75315731  0.42223568  0.11665783     0.76500
C1069       C  0.72838395  0.39162580  0.17069735    -0.27100
C1070       C  0.75499548  0.39789546  0.14758250    -0.15200
C1071       C  0.78322776  0.38066405  0.15437612     0.35400
C1072       C  0.78377802  0.35720094  0.18283844    -0.26600
C1073       C  0.75627376  0.34833785  0.20303196    -0.15800
C1074       C  0.72890569  0.36739840  0.19849362     0.36500
N1075       N  0.70142517  0.36205937  0.22181479    -0.90100
H1076       H  0.70687771  0.40535230  0.16695623     0.17600
H1077       H  0.80622147  0.34603772  0.18854818     0.17600
N1078       N  0.81122579  0.38628327  0.13172644    -0.89100
H1079       H  0.68241995  0.35767978  0.20342351     0.35000
H1080       H  0.69633082  0.38264374  0.23707087     0.40100
H1081       H  0.80659381  0.37892645  0.10351675     0.39700
H1082       H  0.83023324  0.37248819  0.14140809     0.34600
C1083       C  0.91587717  0.20956857  0.21027913    -0.27100
C1084       C  0.88428302  0.21394373  0.19807933    -0.15200
C1085       C  0.87849509  0.21759433  0.15786474     0.35400
C1086       C  0.90363804  0.21752165  0.13150132    -0.26600
C1087       C  0.93471570  0.21312690  0.14389502    -0.15800
C1088       C  0.94109309  0.20903701  0.18347156     0.36500
N1089       N  0.97310726  0.20406690  0.19616005    -0.90100
H1090       H  0.92136995  0.20602284  0.24036981     0.17600
H1091       H  0.89875361  0.22045367  0.10095170     0.17600
N1092       N  0.84688600  0.22114094  0.14348550    -0.89100
H1093       H  0.97389217  0.20120023  0.22617246     0.35000
H1094       H  0.98574520  0.22438964  0.18977213     0.40100
H1095       H  0.84270756  0.20295638  0.12401961     0.39700
H1096       H  0.84536859  0.24237999  0.12833477     0.34600
C1097       C  0.57672806  0.19416745  0.16376064    -0.27100
C1098       C  0.57111851  0.21933169  0.13832838    -0.15200
C1099       C  0.59087184  0.24560919  0.13997261     0.35400
C1100       C  0.61622711  0.24588516  0.16589079    -0.26600
C1101       C  0.62305201  0.22005264  0.19038715    -0.15800
C1102       C  0.60211467  0.19441055  0.18977170     0.36500
N1103       N  0.60664176  0.16833116  0.21549336    -0.90100
H1104       H  0.56134238  0.17401521  0.16348346     0.17600
H1105       H  0.63005134  0.26684815  0.16584942     0.17600
N1106       N  0.58594125  0.27188602  0.11462520    -0.89100
H1107       H  0.58620639  0.16604761  0.23231420     0.35000
H1108       H  0.60932498  0.14802632  0.19888254     0.40100
H1109       H  0.60645046  0.27488601  0.09812078     0.39700
H1110       H  0.58259279  0.29193280  0.13155661     0.34600
C1111       C  0.72823508  0.04157162  0.15775693    -0.27100
C1112       C  0.75650706  0.03237880  0.13930797    -0.15200
C1113       C  0.78468578  0.04791318  0.14900093     0.35400
C1114       C  0.78341236  0.07355472  0.17441361    -0.26600
C1115       C  0.75465116  0.08450192  0.19066163    -0.15800
C1116       C  0.72714566  0.06664791  0.18405941     0.36500
N1117       N  0.69807543  0.07397700  0.20393325    -0.90100
H1118       H  0.70672020  0.02890589  0.15193155     0.17600
H1119       H  0.80553871  0.08404422  0.18225310     0.17600
N1120       N  0.81456743  0.03788106  0.13303221    -0.89100
H1121       H  0.67995671  0.05921691  0.19496280     0.35000
H1122       H  0.70153523  0.06931618  0.23329622     0.40100
H1123       H  0.82010069  0.01601505  0.14520691     0.39700
H1124       H  0.83265172  0.05294425  0.14131197     0.34600
C1125       C  0.77269958  0.38458175  0.46120600    -0.27100
C1126       C  0.74656945  0.39119005  0.48506020    -0.15200
C1127       C  0.71948577  0.37229431  0.48216455     0.35400
C1128       C  0.71917789  0.34750513  0.45559670    -0.26600
C1129       C  0.74583991  0.33973606  0.43270160    -0.15800
C1130       C  0.77249994  0.35939941  0.43510892     0.36500
N1131       N  0.79959788  0.35388803  0.41101429    -0.90100
H1132       H  0.79350042  0.39913462  0.46263309     0.17600
H1133       H  0.69748867  0.33483282  0.45335462     0.17600
N1134       N  0.69365722  0.37654388  0.00919005    -0.89100
H1135       H  0.81922361  0.35035383  0.42887325     0.35000
H1136       H  0.80344161  0.37408321  0.39447957     0.40100
H1137       H  0.70103093  0.37184141  0.03747494     0.39700
H1138       H  0.67548456  0.36083723  0.00338296     0.34600
C1139       C  0.89939670  0.21474001  0.49747500    -0.27100
C1140       C  0.92944062  0.20579996  0.48443338    -0.15200
C1141       C  0.93349746  0.19494105  0.44645730     0.35400
C1142       C  0.90766984  0.19576256  0.42103373    -0.26600
C1143       C  0.87759897  0.20678607  0.43304006    -0.15800
C1144       C  0.87314620  0.21394572  0.47280828     0.36500
N1145       N  0.84209223  0.22033991  0.48817621    -0.90100
H1146       H  0.89644725  0.22028089  0.02802619     0.17600
H1147       H  0.91125317  0.18690126  0.39215775     0.17600
N1148       N  0.96396449  0.18381893  0.43362589    -0.89100
H1149       H  0.84339790  0.22438063  0.01783787     0.35000
H1150       H  0.82908382  0.19971768  0.48623301     0.40100
H1151       H  0.96937391  0.16340007  0.44919405     0.39700
H1152       H  0.96322559  0.17740547  0.40449618     0.34600
C1153       C  0.59763321  0.20611014  0.48972577    -0.27100
C1154       C  0.56659879  0.21085401  0.47737100    -0.15200
C1155       C  0.56028725  0.21484099  0.43770837     0.35400
C1156       C  0.58549999  0.21362900  0.41085865    -0.26600
C1157       C  0.61707182  0.20911095  0.42311248    -0.15800
C1158       C  0.62277234  0.20563316  0.46335620     0.36500
N1159       N  0.65433793  0.20194375  0.47779586    -0.90100
H1160       H  0.60280151  0.20368874  0.02051408     0.17600
H1161       H  0.58005960  0.21691305  0.38070298     0.17600
N1162       N  0.52829587  0.21957420  0.42484463    -0.89100
H1163       H  0.65567877  0.18079101  0.49315015     0.35000
H1164       H  0.65864758  0.22022596  0.49707363     0.40100
H1165       H  0.52023778  0.24103994  0.43586956     0.39700
H1166       H  0.52748270  0.22152892  0.39473107     0.34600
C1167       C  0.77864157  0.06442924  0.43310906    -0.27100
C1168       C  0.74957119  0.07653544  0.41941803    -0.15200
C1169       C  0.72186240  0.05957561  0.42855188     0.35400
C1170       C  0.72323529  0.03522841  0.45627876    -0.26600
C1171       C  0.75194058  0.02591846  0.47350871    -0.15800
C1172       C  0.78020506  0.03979951  0.46016123     0.36500
N1173       N  0.81048029  0.02950631  0.47457840    -0.90100
H1174       H  0.80061786  0.07413909  0.42281291     0.17600
H1175       H  0.70163478  0.02351200  0.46453775     0.17600
N1176       N  0.69246334  0.06685419  0.40962984    -0.89100
H1177       H  0.82861770  0.04351203  0.46369509     0.35000
H1178       H  0.81472191  0.00693272  0.46387973     0.40100
H1179       H  0.69541785  0.06198831  0.38023651     0.39700
H1180       H  0.67447961  0.05225768  0.41965235     0.34600
C1181       C  0.75074124  0.10628958  0.89534590     0.85700
C1182       C  0.72125532  0.12793854  0.90168361    -0.54600
C1183       C  0.72089971  0.15454014  0.87935759     0.08600
C1184       C  0.75076410  0.15685952  0.85426291     0.19600
C1185       C  0.75208910  0.10042719  0.85110401    -0.55300
C1186       C  0.75207169  0.12724960  0.82908079     0.08700
C1187       C  0.77873753  0.12855431  0.90376722    -0.54800
C1188       C  0.77907101  0.15516089  0.88187117     0.09300
H1189       H  0.70289907  0.12307641  0.92269416     0.13800
H1190       H  0.75091195  0.17749367  0.83786762    -0.00500
H1191       H  0.75295519  0.07707239  0.83876991     0.14100
H1192       H  0.79606490  0.12430959  0.92618959     0.13900
C1193       C  0.64612747  0.20810295  0.89529903     0.85700
C1194       C  0.66742545  0.23649990  0.90367566    -0.54600
C1195       C  0.69453396  0.23755882  0.88228952     0.08600
C1196       C  0.69714373  0.20974235  0.85439209     0.19600
C1197       C  0.64017227  0.21005562  0.85079811    -0.55300
C1198       C  0.66731606  0.21106348  0.82895183     0.08700
C1199       C  0.66782374  0.17877247  0.90010243    -0.54800
C1200       C  0.69514532  0.17962159  0.87903510     0.09300
H1201       H  0.66102650  0.25414138  0.92488856     0.13800
H1202       H  0.71807574  0.21061331  0.83810480    -0.00500
H1203       H  0.61710108  0.21048908  0.83748471     0.14100
H1204       H  0.66189599  0.15932620  0.91899018     0.13900
C1205       C  0.85093845  0.20875542  0.90455298     0.85700
C1206       C  0.82923163  0.18001780  0.90845071    -0.54600
C1207       C  0.80362288  0.18059757  0.88453320     0.08600
C1208       C  0.80274640  0.21029668  0.85930314     0.19600
C1209       C  0.85968528  0.21024500  0.86084583    -0.55300
C1210       C  0.83422317  0.21075434  0.83667028     0.08700
C1211       C  0.82905725  0.23787934  0.91022690    -0.54800
C1212       C  0.80305981  0.23853883  0.88698989     0.09300
H1213       H  0.83429110  0.16089917  0.92833892     0.13800
H1214       H  0.78292784  0.21076923  0.84115745    -0.00500
H1215       H  0.88356932  0.21182838  0.84983744     0.14100
H1216       H  0.83399692  0.25633477  0.93074021     0.13900
C1217       C  0.74639514  0.31040510  0.90645589     0.85700
C1218       C  0.77549785  0.28838039  0.91271953    -0.54600
C1219       C  0.77728233  0.26357007  0.88775424     0.08600
C1220       C  0.74917164  0.26340340  0.85985249     0.19600
C1221       C  0.74784906  0.31984671  0.86305082    -0.55300
C1222       C  0.74947224  0.29500731  0.83812106     0.08700
C1223       C  0.71779013  0.28783085  0.90940798    -0.54800
C1224       C  0.71912147  0.26302513  0.88473951     0.09300
H1225       H  0.79287711  0.29231141  0.93511453     0.13800
H1226       H  0.75011132  0.24401896  0.84146329    -0.00500
H1227       H  0.74782379  0.34408038  0.85334738     0.14100
H1228       H  0.69856342  0.29004143  0.92969084     0.13900
C1229       C  0.75550126  0.11299157  0.71719020     0.85700
C1230       C  0.78423402  0.13529844  0.71346824    -0.54600
C1231       C  0.78333087  0.16028866  0.73790674     0.08600
C1232       C  0.75338619  0.16045377  0.76301272     0.19600
C1233       C  0.75422460  0.10402595  0.76064925    -0.55300
C1234       C  0.75305209  0.12903929  0.78521319     0.08700
C1235       C  0.72666272  0.13537722  0.71046292    -0.54800
C1236       C  0.72526429  0.16054522  0.73489779     0.09300
H1237       H  0.80288479  0.13284523  0.69231354     0.13800
H1238       H  0.75273553  0.17982239  0.78143410    -0.00500
H1239       H  0.75453658  0.07988602  0.77070203     0.14100
H1240       H  0.70939331  0.13172380  0.68786905     0.13900
C1241       C  0.65289325  0.21734555  0.71691949     0.85700
C1242       C  0.67490585  0.18844037  0.71008602    -0.54600
C1243       C  0.70026084  0.18648001  0.73451108     0.08600
C1244       C  0.70070931  0.21420662  0.76287288     0.19600
C1245       C  0.64378408  0.21560630  0.76047721    -0.55300
C1246       C  0.66905885  0.21359538  0.78510496     0.08700
C1247       C  0.67511163  0.24605004  0.71459206    -0.54800
C1248       C  0.70055096  0.24442191  0.73837551     0.09300
H1249       H  0.67038456  0.17114437  0.68791632     0.13800
H1250       H  0.72030367  0.21324625  0.78134769    -0.00500
H1251       H  0.61946134  0.21591677  0.77050043     0.14100
H1252       H  0.67102168  0.26669116  0.69724453     0.13900
C1253       C  0.85663883  0.21448973  0.72643003     0.85700
C1254       C  0.83537420  0.24406751  0.72241427    -0.54600
C1255       C  0.80825170  0.24339643  0.74383125     0.08600
C1256       C  0.80593669  0.21327056  0.76796085     0.19600
C1257       C  0.86293742  0.21233728  0.77080001    -0.55300
C1258       C  0.83586972  0.21185635  0.79292278     0.08700
C1259       C  0.83495748  0.18642057  0.71801763    -0.54800
C1260       C  0.80808324  0.18554103  0.73987042     0.09300
H1261       H  0.84173845  0.26369639  0.70408389     0.13800
H1262       H  0.78507262  0.21279785  0.78441469    -0.00500
H1263       H  0.88615309  0.21196941  0.78373627     0.14100
H1264       H  0.84092483  0.16884856  0.69653193     0.13900
C1265       C  0.75494716  0.31783319  0.72811833     0.85700
C1266       C  0.72673646  0.29617771  0.71895241    -0.54600
C1267       C  0.72546321  0.26951367  0.74107560     0.08600
C1268       C  0.75321332  0.26726760  0.76923428     0.19600
C1269       C  0.75270917  0.32379388  0.77235651    -0.55300
C1270       C  0.75177633  0.29693648  0.79436825     0.08700
C1271       C  0.78410736  0.29565487  0.72293176    -0.54800
C1272       C  0.78338782  0.26907780  0.74476943     0.09300
H1273       H  0.70978251  0.30157901  0.69641152     0.13800
H1274       H  0.75249993  0.24645128  0.78529505    -0.00500
H1275       H  0.75189543  0.34715072  0.78468813     0.14100
H1276       H  0.80281410  0.29917992  0.70219502     0.13900
O1277       O  0.53421865  0.24136613  0.59472745    -0.72600
O1278       O  0.96566965  0.23433809  0.52229080    -0.72800
O1279       O  0.97011289  0.23875526  0.59908667    -0.72700
O1280       O  0.52939210  0.23774678  0.51737797    -0.72700
O1281       O  0.53284338  0.18704382  0.52372513    -0.72600
O1282       O  0.97062466  0.18776404  0.60194648    -0.72700
O1283       O  0.96937429  0.18341473  0.52441531    -0.72600
O1284       O  0.53361695  0.19067620  0.60114279    -0.72800
V1285       V  0.50014441  0.23832554  0.55929030     1.35200
V1286       V  0.50147660  0.18942156  0.56313424     1.35200
C1287       C  0.54541791  0.21670693  0.61023030     0.76600
C1288       C  0.95612820  0.20788860  0.51121221     0.76700
C1289       C  0.95991194  0.21373778  0.61405589     0.76600
C1290       C  0.54149122  0.21188724  0.50688089     0.76500
O1291       O  0.72293052  0.42969665  0.52662576    -0.72600
O1292       O  0.72581354  0.49548445  0.59985121    -0.72800
O1293       O  0.72329104  0.49273781  0.52194303    -0.72700
O1294       O  0.72574267  0.43252661  0.60420773    -0.72700
O1295       O  0.77689333  0.43169152  0.60051309    -0.72600
O1296       O  0.77446530  0.49192281  0.51975072    -0.72700
O1297       O  0.77699862  0.49456678  0.59728080    -0.72000
O1298       O  0.77412945  0.42891353  0.52316079    -0.72800
V1299       V  0.72540886  0.46263278  0.56305724     1.35200
V1300       V  0.77461027  0.46181299  0.56022414     1.35200
C1301       C  0.74793738  0.41774842  0.51266606     0.76600
C1302       C  0.75502136  0.00678178  0.60976175     0.76700
C1303       C  0.75178441  0.00224062  0.50548322     0.76600
C1304       C  0.75195405  0.42164494  0.61623575     0.76500
C1305       C  0.72674987  0.39039430  0.66968480    -0.27100
C1306       C  0.75367295  0.39744463  0.64746226    -0.15200
C1307       C  0.78213928  0.38111936  0.65554218     0.35400
C1308       C  0.78274639  0.35738261  0.68359331    -0.26600
C1309       C  0.75515959  0.34791144  0.70320481    -0.15800
C1310       C  0.72741911  0.36633513  0.69778992     0.36500
N1311       N  0.69972068  0.36055087  0.72054072    -0.90100
H1312       H  0.70493831  0.40345511  0.66513595     0.17600
H1313       H  0.80545948  0.34678417  0.68954180     0.17600
N1314       N  0.81065543  0.38792320  0.63479671    -0.89100
H1315       H  0.68111517  0.35561092  0.70176942     0.35000
H1316       H  0.69392489  0.38114051  0.73542881     0.40100
H1317       H  0.81836232  0.36740019  0.62102028     0.39700
H1318       H  0.82790002  0.39432790  0.65477109     0.34600
C1319       C  0.91617398  0.20988058  0.70992756    -0.27100
C1320       C  0.88461653  0.21506864  0.69805392    -0.15200
C1321       C  0.87874981  0.21966528  0.65798986     0.35400
C1322       C  0.90382284  0.21999743  0.63152484    -0.26600
C1323       C  0.93487261  0.21477923  0.64358080    -0.15800
C1324       C  0.94129494  0.20956905  0.68296938     0.36500
N1325       N  0.97325755  0.20369161  0.69530160    -0.90100
H1326       H  0.92165558  0.20536127  0.73984142     0.17600
H1327       H  0.89887039  0.22365135  0.60110087     0.17600
N1328       N  0.84712349  0.22367290  0.64383211    -0.89100
H1329       H  0.97408492  0.20004907  0.72518788     0.35000
H1330       H  0.98624898  0.22392930  0.68963322     0.40100
H1331       H  0.84281007  0.20595049  0.62377539     0.39700
H1332       H  0.84567092  0.24524509  0.62940616     0.34600
C1333       C  0.57551127  0.19446271  0.66598577    -0.27100
C1334       C  0.57205631  0.21796543  0.63776042    -0.15200
C1335       C  0.59512673  0.24129270  0.63481344     0.35400
C1336       C  0.62087040  0.24102467  0.66015564    -0.26600
C1337       C  0.62435516  0.21793318  0.68939791    -0.15800
C1338       C  0.60131304  0.19414703  0.69148950     0.36500
N1339       N  0.60423889  0.16923055  0.71919548    -0.90100
H1340       H  0.55812732  0.17605716  0.66823219     0.17600
H1341       H  0.63827810  0.25870640  0.65497974     0.17600
N1342       N  0.59335058  0.26465152  0.60494509    -0.89100
H1343       H  0.58392446  0.16937090  0.73649881     0.35000
H1344       H  0.60512239  0.14797380  0.70421655     0.40100
H1345       H  0.61375135  0.26276906  0.58790745     0.39700
H1346       H  0.59318511  0.28673702  0.61800774     0.34600
C1347       C  0.72900969  0.04084979  0.65907609    -0.27100
C1348       C  0.75643459  0.03279153  0.63818514    -0.15200
C1349       C  0.78445876  0.04948326  0.64513848     0.35400
C1350       C  0.78406850  0.07426186  0.67179072    -0.26600
C1351       C  0.75604530  0.08398678  0.69084448    -0.15800
C1352       C  0.72861065  0.06565390  0.68575362     0.36500
N1353       N  0.70022743  0.07236646  0.70737303    -0.90100
H1354       H  0.70765842  0.02750441  0.65485765     0.17600
H1355       H  0.80626155  0.08536849  0.67763283     0.17600
N1356       N  0.81325373  0.04156826  0.62495835    -0.89100
H1357       H  0.68189909  0.05765749  0.69892930     0.35000
H1358       H  0.70473761  0.06712438  0.73636763     0.40100
H1359       H  0.83196452  0.05536665  0.63443242     0.39700
H1360       H  0.80989827  0.04718522  0.59579604     0.34600
C1361       C  0.77299854  0.38405797  0.96164264    -0.27100
C1362       C  0.74724165  0.39040362  0.98617658    -0.15200
C1363       C  0.72036319  0.37114033  0.98407782     0.35400
C1364       C  0.71990638  0.34620629  0.95764451    -0.26600
C1365       C  0.74610797  0.33894770  0.93370318    -0.15800
C1366       C  0.77256040  0.35894926  0.93543315     0.36500
N1367       N  0.79920742  0.35388334  0.91046378    -0.90100
H1368       H  0.79363724  0.39886781  0.96248464     0.17600
H1369       H  0.69849468  0.33299573  0.95638247     0.17600
N1370       N  0.69242676  0.37786865  0.50665461    -0.89100
H1371       H  0.81924930  0.35054849  0.92766741     0.35000
H1372       H  0.80242203  0.37419335  0.89392229     0.40100
H1373       H  0.69926880  0.37286310  0.53506064     0.39700
H1374       H  0.67415728  0.36242524  0.50024529     0.34600
C1375       C  0.89974488  0.21386803  0.99798749    -0.27100
C1376       C  0.92994187  0.20555508  0.98490866    -0.15200
C1377       C  0.93441778  0.19564892  0.94663005     0.35400
C1378       C  0.90872206  0.19655513  0.92104956    -0.26600
C1379       C  0.87842340  0.20684508  0.93317218    -0.15800
C1380       C  0.87366351  0.21327431  0.97308507     0.36500
N1381       N  0.84247759  0.21920698  0.98833797    -0.90100
H1382       H  0.89633136  0.22174550  0.52734828     0.17600
H1383       H  0.91262688  0.18832434  0.89196172     0.17600
N1384       N  0.96518800  0.18548524  0.93366871    -0.89100
H1385       H  0.84320536  0.22584532  0.51757168     0.35000
H1386       H  0.82967077  0.19849372  0.98596028     0.40100
H1387       H  0.97097323  0.16482944  0.94855828     0.39700
H1388       H  0.96474018  0.17974174  0.90431751     0.34600
C1389       C  0.59805827  0.20600412  0.98983611    -0.27100
C1390       C  0.56705399  0.21052147  0.97718279    -0.15200
C1391       C  0.56094046  0.21385738  0.93740052     0.35400
C1392       C  0.58626088  0.21213743  0.91074837    -0.26600
C1393       C  0.61779643  0.20784954  0.92326890    -0.15800
C1394       C  0.62332705  0.20506891  0.96362352     0.36500
N1395       N  0.65484475  0.20172416  0.97832695    -0.90100
H1396       H  0.60251354  0.20332909  0.52031792     0.17600
H1397       H  0.58090559  0.21491057  0.88050599     0.17600
N1398       N  0.52903292  0.21851816  0.92421828    -0.89100
H1399       H  0.65616626  0.18089135  0.99432911     0.35000
H1400       H  0.65904732  0.22040202  0.99706347     0.40100
H1401       H  0.52103657  0.24019683  0.93466754     0.39700
H1402       H  0.52835618  0.21999350  0.89405982     0.34600
C1403       C  0.78053955  0.06363514  0.93301255    -0.27100
C1404       C  0.75143425  0.07581751  0.91949600    -0.15200
C1405       C  0.72373706  0.05882652  0.92851645     0.35400
C1406       C  0.72508927  0.03449181  0.95617715    -0.26600
C1407       C  0.75377075  0.02516580  0.97337721    -0.15800
C1408       C  0.78208845  0.03886764  0.95989837     0.36500
N1409       N  0.81235713  0.02823931  0.97398911    -0.90100
H1410       H  0.80249930  0.07340845  0.92274233     0.17600
H1411       H  0.70346291  0.02283131  0.96445599     0.17600
N1412       N  0.69434143  0.06611086  0.90959439    -0.89100
H1413       H  0.83057918  0.04197260  0.96276797     0.35000
H1414       H  0.81621039  0.00557318  0.96339510     0.40100
H1415       H  0.69730611  0.06128339  0.88019889     0.39700
H1416       H  0.67635062  0.05150032  0.91958038     0.34600
C1417       C  0.74452876  0.60806065  0.39686300     0.85700
C1418       C  0.71521810  0.63002379  0.40262985    -0.54600
C1419       C  0.71525841  0.65644565  0.37997057     0.08600
C1420       C  0.74526744  0.65827256  0.35505984     0.19600
C1421       C  0.74609960  0.60179872  0.35268847    -0.55300
C1422       C  0.74644059  0.62840222  0.33026482     0.08700
C1423       C  0.77267421  0.63020043  0.40523465    -0.54800
C1424       C  0.77340648  0.65661239  0.38298208     0.09300
H1425       H  0.69676709  0.62562014  0.42365397     0.13800
H1426       H  0.74563455  0.67876997  0.33838608    -0.00500
H1427       H  0.74681742  0.57832991  0.34067660     0.14100
H1428       H  0.78986142  0.62593591  0.42783028     0.13900
C1429       C  0.64100301  0.71076368  0.39517962     0.85700
C1430       C  0.66242996  0.73917569  0.40299927    -0.54600
C1431       C  0.68954110  0.73981069  0.38156466     0.08600
C1432       C  0.69200481  0.71163353  0.35420652     0.19600
C1433       C  0.63501899  0.71230799  0.35064278    -0.55300
C1434       C  0.66220546  0.71285472  0.32876370     0.08700
C1435       C  0.66253228  0.68140440  0.40043437    -0.54800
C1436       C  0.68980469  0.68181135  0.37931977     0.09300
H1437       H  0.65616090  0.75707136  0.42394232     0.13800
H1438       H  0.71295999  0.71211812  0.33795424    -0.00500
H1439       H  0.61192387  0.71294610  0.33738295     0.14100
H1440       H  0.65648108  0.66221816  0.41966227     0.13900
C1441       C  0.84556596  0.71005300  0.40554641     0.85700
C1442       C  0.82357655  0.68152676  0.40987063    -0.54600
C1443       C  0.79817283  0.68191336  0.38556531     0.08600
C1444       C  0.79770757  0.71128637  0.35976540     0.19600
C1445       C  0.85463202  0.71089919  0.36189413    -0.55300
C1446       C  0.82932679  0.71130204  0.33742867     0.08700
C1447       C  0.82390105  0.73941064  0.41028793    -0.54800
C1448       C  0.79804999  0.73985554  0.38686343     0.09300
H1449       H  0.82828447  0.66270523  0.43030577     0.13800
H1450       H  0.77799981  0.71168962  0.34147200    -0.00500
H1451       H  0.87867200  0.71212205  0.35123929     0.14100
H1452       H  0.82895521  0.75830620  0.43011768     0.13900
C1453       C  0.74213817  0.81234156  0.40458191     0.85700
C1454       C  0.77094128  0.79015073  0.41133116    -0.54600
C1455       C  0.77251028  0.76503415  0.38692659     0.08600
C1456       C  0.74451556  0.76475071  0.35892763     0.19600
C1457       C  0.74375132  0.82126825  0.36105026    -0.55300
C1458       C  0.74518701  0.79607058  0.33664574     0.08700
C1459       C  0.71309961  0.79029820  0.40757668    -0.54800
C1460       C  0.71436995  0.76504092  0.38362634     0.09300
H1461       H  0.78834402  0.79428319  0.43364380     0.13800
H1462       H  0.74537140  0.74513802  0.34089383    -0.00500
H1463       H  0.74395079  0.84537557  0.35089198     0.14100
H1464       H  0.69319994  0.79354162  0.42661449     0.13900
C1465       C  0.75042200  0.61313903  0.21843095     0.85700
C1466       C  0.77918486  0.63531552  0.21466617    -0.54600
C1467       C  0.77834611  0.66039653  0.23891275     0.08600
C1468       C  0.74825111  0.66095711  0.26374621     0.19600
C1469       C  0.74879870  0.60451208  0.26202032    -0.55300
C1470       C  0.74763222  0.62974263  0.28632458     0.08700
C1471       C  0.72169014  0.63561372  0.21121666    -0.54800
C1472       C  0.72024419  0.66095800  0.23543632     0.09300
H1473       H  0.79781312  0.63260321  0.19349127     0.13800
H1474       H  0.74763196  0.68050030  0.28191112    -0.00500
H1475       H  0.74888167  0.58044546  0.27233450     0.14100
H1476       H  0.70456742  0.63195552  0.18846433     0.13900
C1477       C  0.64803960  0.71792584  0.21672028     0.85700
C1478       C  0.66997490  0.68885301  0.21023120    -0.54600
C1479       C  0.69527264  0.68696391  0.23476036     0.08600
C1480       C  0.69579012  0.71499712  0.26272386     0.19600
C1481       C  0.63890741  0.71663606  0.26021897    -0.55300
C1482       C  0.66409623  0.71485334  0.28489399     0.08700
C1483       C  0.67072525  0.74626063  0.21345680    -0.54800
C1484       C  0.69593324  0.74491082  0.23765609     0.09300
H1485       H  0.66551626  0.67144273  0.18818150     0.13800
H1486       H  0.71533278  0.71405978  0.28123999    -0.00500
H1487       H  0.61455155  0.71697366  0.27014596     0.14100
H1488       H  0.66800919  0.76576142  0.19390682     0.13900
C1489       C  0.85215473  0.71377682  0.22723359     0.85700
C1490       C  0.83099793  0.74332329  0.22236126    -0.54600
C1491       C  0.80385009  0.74310361  0.24373376     0.08600
C1492       C  0.80131292  0.71335717  0.26849909     0.19600
C1493       C  0.85832265  0.71219003  0.27167689    -0.55300
C1494       C  0.83116857  0.71208599  0.29366346     0.08700
C1495       C  0.83043118  0.68563844  0.21941274    -0.54800
C1496       C  0.80338982  0.68530513  0.24094330     0.09300
H1497       H  0.83741279  0.76254439  0.20339845     0.13800
H1498       H  0.78036450  0.71316769  0.28479389    -0.00500
H1499       H  0.88148449  0.71161209  0.28475458     0.14100
H1500       H  0.83641989  0.66770264  0.19839882     0.13900
C1501       C  0.75116970  0.81770487  0.22665970     0.85700
C1502       C  0.72275804  0.79626185  0.21748111    -0.54600
C1503       C  0.72117387  0.76974776  0.23990065     0.08600
C1504       C  0.74880456  0.76751152  0.26827742     0.19600
C1505       C  0.74882573  0.82404024  0.27069614    -0.55300
C1506       C  0.74755935  0.79742484  0.29297254     0.08700
C1507       C  0.78008647  0.79519196  0.22176043    -0.54800
C1508       C  0.77909081  0.76885652  0.24397753     0.09300
H1509       H  0.70592617  0.80164562  0.19480754     0.13800
H1510       H  0.74786803  0.74687699  0.28465801    -0.00500
H1511       H  0.74824356  0.84750789  0.28272059     0.14100
H1512       H  0.79877965  0.79839130  0.20087046     0.13900
O1513       O  0.52827643  0.74000499  0.09566738    -0.72600
O1514       O  0.96089175  0.73482031  0.02302688    -0.72800
O1515       O  0.96476304  0.73851208  0.09988871    -0.72700
O1516       O  0.52426688  0.73702279  0.01827165    -0.72700
O1517       O  0.52858064  0.68628117  0.02329085    -0.72600
O1518       O  0.96629812  0.68751186  0.10235728    -0.72700
O1519       O  0.96500666  0.68390905  0.02485346    -0.72600
O1520       O  0.52963061  0.68923356  0.10073547    -0.72800
V1521       V  0.49466834  0.73635656  0.05983146     1.35200
V1522       V  0.49734651  0.68744976  0.06293643     1.35200
C1523       C  0.54035826  0.71555007  0.11061381     0.76600
C1524       C  0.95159562  0.70833502  0.01179752     0.76700
C1525       C  0.95508149  0.71322018  0.11464350     0.76600
C1526       C  0.53691172  0.71156496  0.00722643     0.76500
O1527       O  0.72518290  0.93002243  0.02658029    -0.72600
O1528       O  0.72935721  0.99667037  0.09835521    -0.72800
O1529       O  0.72764718  0.99278811  0.02054782    -0.72700
O1530       O  0.72726793  0.93382142  0.10384811    -0.72700
O1531       O  0.77840689  0.93144683  0.10104797    -0.72600
O1532       O  0.77883271  0.99055535  0.01919651    -0.72700
O1533       O  0.78053580  0.99416804  0.09673309    -0.72000
O1534       O  0.77641251  0.92769166  0.02370464    -0.72800
V1535       V  0.72834462  0.96335365  0.06225664     1.35200
V1536       V  0.77755245  0.96103627  0.06021917     1.35200
C1537       C  0.74993498  0.91718765  0.01318379     0.76600
C1538       C  0.75312591  0.50672203  0.11088639     0.76700
C1539       C  0.74946694  0.50201831  0.00609215     0.76600
C1540       C  0.75298874  0.92215754  0.11628559     0.76500
C1541       C  0.72562185  0.89069475  0.16757128    -0.27100
C1542       C  0.75351543  0.89775612  0.14723030    -0.15200
C1543       C  0.78164361  0.88122397  0.15682268     0.35400
C1544       C  0.78081682  0.85753608  0.18496844    -0.26600
C1545       C  0.75225919  0.84776622  0.20199870    -0.15800
C1546       C  0.72487071  0.86629311  0.19509131     0.36500
N1547       N  0.69617725  0.86042216  0.21586954    -0.90100
H1548       H  0.70410155  0.90393088  0.16185862     0.17600
H1549       H  0.80302793  0.84684107  0.19310561     0.17600
N1550       N  0.81101756  0.88785044  0.13748724    -0.89100
H1551       H  0.67839893  0.85584806  0.19579321     0.35000
H1552       H  0.68984927  0.88085610  0.23077257     0.40100
H1553       H  0.80890060  0.88018174  0.10893812     0.39700
H1554       H  0.82967497  0.87479475  0.14943823     0.34600
C1555       C  0.91180229  0.71096711  0.21082939    -0.27100
C1556       C  0.88004295  0.71398988  0.19879043    -0.15200
C1557       C  0.87388345  0.71661958  0.15853519     0.35400
C1558       C  0.89881955  0.71673460  0.13191875    -0.26600
C1559       C  0.93007417  0.71368740  0.14414001    -0.15800
C1560       C  0.93684372  0.71073834  0.18377491     0.36500
N1561       N  0.96908673  0.70726759  0.19627564    -0.90100
H1562       H  0.91755690  0.70844108  0.24100229     0.17600
H1563       H  0.89365460  0.71882000  0.10133457     0.17600
N1564       N  0.84209941  0.71897113  0.14439642    -0.89100
H1565       H  0.97015744  0.70510296  0.22635828     0.35000
H1566       H  0.98088353  0.72791890  0.18907523     0.40100
H1567       H  0.83832028  0.70026160  0.12556256     0.39700
H1568       H  0.83986337  0.73984214  0.12860603     0.34600
C1569       C  0.57231857  0.69251271  0.16428356    -0.27100
C1570       C  0.56669880  0.71744768  0.13852445    -0.15200
C1571       C  0.58694920  0.74336007  0.13905065     0.35400
C1572       C  0.61247646  0.74377634  0.16466914    -0.26600
C1573       C  0.61905710  0.71840400  0.18996945    -0.15800
C1574       C  0.59799347  0.69282573  0.18991756     0.36500
N1575       N  0.60270283  0.66687145  0.21578218    -0.90100
H1576       H  0.55671984  0.67251894  0.16455245     0.17600
H1577       H  0.62667510  0.76446174  0.16362549     0.17600
N1578       N  0.58240207  0.76906090  0.11271863    -0.89100
H1579       H  0.58242156  0.66471205  0.23290422     0.35000
H1580       H  0.60517960  0.64647979  0.19928550     0.40100
H1581       H  0.60285398  0.77118123  0.09588084     0.39700
H1582       H  0.57960399  0.78960478  0.12885824     0.34600
C1583       C  0.72553124  0.54102828  0.15890339    -0.27100
C1584       C  0.75382469  0.53229332  0.14016491    -0.15200
C1585       C  0.78186270  0.54806828  0.14992624     0.35400
C1586       C  0.78041888  0.57338589  0.17582623    -0.26600
C1587       C  0.75159512  0.58395038  0.19230778    -0.15800
C1588       C  0.72424392  0.56592820  0.18547932     0.36500
N1589       N  0.69509127  0.57298560  0.20530649    -0.90100
H1590       H  0.70412800  0.52820889  0.15299254     0.17600
H1591       H  0.80247691  0.58395742  0.18376186     0.17600
N1592       N  0.81177914  0.53862774  0.13351683    -0.89100
H1593       H  0.67708069  0.55816712  0.19614872     0.35000
H1594       H  0.69851571  0.56820506  0.23464301     0.40100
H1595       H  0.81769503  0.51670055  0.14525027     0.39700
H1596       H  0.82970551  0.55385151  0.14186965     0.34600
C1597       C  0.77040619  0.88607276  0.45793124    -0.27100
C1598       C  0.74610632  0.89143703  0.48484578    -0.15200
C1599       C  0.71974856  0.87150055  0.48521721     0.35400
C1600       C  0.71813726  0.84689798  0.45854597    -0.26600
C1601       C  0.74265448  0.84085213  0.43167481    -0.15800
C1602       C  0.76887877  0.86124296  0.43145286     0.36500
N1603       N  0.79431104  0.85662387  0.40452732    -0.90100
H1604       H  0.79071815  0.90133927  0.45724967     0.17600
H1605       H  0.69751315  0.83257340  0.46015315     0.17600
N1606       N  0.69661022  0.87480913  0.01491719    -0.89100
H1607       H  0.81518791  0.85332359  0.42019820     0.35000
H1608       H  0.79654805  0.87709378  0.38803009     0.40100
H1609       H  0.70635404  0.87025148  0.04214366     0.39700
H1610       H  0.67858879  0.85852968  0.01112095     0.34600
C1611       C  0.89529582  0.71817715  0.49801342    -0.27100
C1612       C  0.92498437  0.70773029  0.48540977    -0.15200
C1613       C  0.92851525  0.69512841  0.44817535     0.35400
C1614       C  0.90264621  0.69589303  0.42280859    -0.26600
C1615       C  0.87303096  0.70842072  0.43424669    -0.15800
C1616       C  0.86891134  0.71710002  0.47360850     0.36500
N1617       N  0.83805273  0.72446532  0.48892836    -0.90100
H1618       H  0.89192015  0.72266495  0.02767904     0.17600
H1619       H  0.90574658  0.68586853  0.39441234     0.17600
N1620       N  0.95850436  0.68231453  0.43598557    -0.89100
H1621       H  0.83880814  0.72670501  0.01787112     0.35000
H1622       H  0.82465735  0.70403968  0.48787623     0.40100
H1623       H  0.96307708  0.66230799  0.45271549     0.39700
H1624       H  0.95741584  0.67479166  0.40729066     0.34600
C1625       C  0.59353146  0.70878386  0.49015602    -0.27100
C1626       C  0.56231494  0.71152220  0.47763780    -0.15200
C1627       C  0.55585437  0.71389855  0.43783554     0.35400
C1628       C  0.58110364  0.71318269  0.41100904    -0.26600
C1629       C  0.61283043  0.71055823  0.42337955    -0.15800
C1630       C  0.61866727  0.70853605  0.46374846     0.36500
N1631       N  0.65034807  0.70641380  0.47823451    -0.90100
H1632       H  0.59832088  0.70714984  0.02130030     0.17600
H1633       H  0.57551825  0.71505520  0.38072372     0.17600
N1634       N  0.52367986  0.71648246  0.42483601    -0.89100
H1635       H  0.65248580  0.68576728  0.49448625     0.35000
H1636       H  0.65398535  0.72539316  0.49669618     0.40100
H1637       H  0.51443512  0.73780080  0.43492030     0.39700
H1638       H  0.52278657  0.71750101  0.39466264     0.34600
C1639       C  0.77429478  0.56511234  0.43382986    -0.27100
C1640       C  0.74506003  0.57774556  0.42146251    -0.15200
C1641       C  0.71734054  0.56117942  0.43173253     0.35400
C1642       C  0.71910749  0.53668233  0.45927304    -0.26600
C1643       C  0.74815078  0.52671639  0.47507664    -0.15800
C1644       C  0.77623725  0.54022368  0.46052182     0.36500
N1645       N  0.80676844  0.52914600  0.47317900    -0.90100
H1646       H  0.79610178  0.57465991  0.42273368     0.17600
H1647       H  0.69755910  0.52529414  0.46840884     0.17600
N1648       N  0.68756417  0.56880124  0.41392149    -0.89100
H1649       H  0.82483020  0.54276491  0.46138030     0.35000
H1650       H  0.81004795  0.50653379  0.46214148     0.40100
H1651       H  0.68974739  0.56397219  0.38441490     0.39700
H1652       H  0.66966931  0.55438845  0.42455940     0.34600
C1653       C  0.74425938  0.60704301  0.89625598     0.85700
C1654       C  0.71499083  0.62906986  0.90244716    -0.54600
C1655       C  0.71502988  0.65566515  0.88002190     0.08600
C1656       C  0.74491212  0.65748445  0.85491563     0.19600
C1657       C  0.74555526  0.60104125  0.85203289    -0.55300
C1658       C  0.74580563  0.62778083  0.82986326     0.08700
C1659       C  0.77247820  0.62903205  0.90461503    -0.54800
C1660       C  0.77317825  0.65553679  0.88258831     0.09300
H1661       H  0.69658779  0.62457516  0.92350999     0.13800
H1662       H  0.74531975  0.67804121  0.83839226    -0.00500
H1663       H  0.74615411  0.57764286  0.83981041     0.14100
H1664       H  0.78976933  0.62456346  0.92703729     0.13900
C1665       C  0.64115964  0.71050009  0.89577390     0.85700
C1666       C  0.66280643  0.73875528  0.90366956    -0.54600
C1667       C  0.68989540  0.73929250  0.88216345     0.08600
C1668       C  0.69209091  0.71118016  0.85464820     0.19600
C1669       C  0.63511408  0.71223984  0.85126829    -0.55300
C1670       C  0.66222951  0.71274727  0.82930841     0.08700
C1671       C  0.66251839  0.68098280  0.90088383    -0.54800
C1672       C  0.68973881  0.68124481  0.87964257     0.09300
H1673       H  0.65667819  0.75665152  0.92467052     0.13800
H1674       H  0.71299165  0.71164028  0.83826791    -0.00500
H1675       H  0.61201724  0.71313964  0.83804603     0.14100
H1676       H  0.65640701  0.66179895  0.92009219     0.13900
C1677       C  0.84574356  0.70831556  0.90501610     0.85700
C1678       C  0.82359065  0.67993833  0.90927358    -0.54600
C1679       C  0.79807328  0.68064681  0.88516933     0.08600
C1680       C  0.79767147  0.71012637  0.85956767     0.19600
C1681       C  0.85460263  0.70928047  0.86130489    -0.55300
C1682       C  0.82917522  0.70999902  0.83703508     0.08700
C1683       C  0.82430484  0.73778262  0.91013536    -0.54800
C1684       C  0.79836635  0.73855867  0.88684701     0.09300
H1685       H  0.82828797  0.66096902  0.92950346     0.13800
H1686       H  0.77787789  0.71076876  0.84139088    -0.00500
H1687       H  0.87855853  0.71043587  0.85040915     0.14100
H1688       H  0.82954649  0.75643943  0.93023990     0.13900
C1689       C  0.74313892  0.81136973  0.90555055     0.85700
C1690       C  0.77176720  0.78889276  0.91189450    -0.54600
C1691       C  0.77304284  0.76394903  0.88721284     0.08600
C1692       C  0.74494520  0.76409848  0.85932283     0.19600
C1693       C  0.74467924  0.82060444  0.86205949    -0.55300
C1694       C  0.74580293  0.79559524  0.83731844     0.08700
C1695       C  0.71392783  0.78951921  0.90846145    -0.54800
C1696       C  0.71488945  0.76441690  0.88422293     0.09300
H1697       H  0.78926533  0.79269717  0.93418922     0.13800
H1698       H  0.74556843  0.74457425  0.84111595    -0.00500
H1699       H  0.74507061  0.84477805  0.85216016     0.14100
H1700       H  0.69416902  0.79275323  0.92772724     0.13900
C1701       C  0.74901493  0.61308840  0.71800213     0.85700
C1702       C  0.77800084  0.63498484  0.71416318    -0.54600
C1703       C  0.77748812  0.66002013  0.73851614     0.08600
C1704       C  0.74750019  0.66072565  0.76358302     0.19600
C1705       C  0.74745167  0.60429172  0.76149621    -0.55300
C1706       C  0.74669640  0.62940016  0.78595243     0.08700
C1707       C  0.72050822  0.63588751  0.71101412    -0.54800
C1708       C  0.71938252  0.66111544  0.73541589     0.09300
H1709       H  0.79653280  0.63203764  0.69286886     0.13800
H1710       H  0.74711099  0.68017210  0.78191676    -0.00500
H1711       H  0.74728691  0.58017764  0.77163468     0.14100
H1712       H  0.70336085  0.63261593  0.68820153     0.13900
C1713       C  0.64761374  0.71875639  0.71733509     0.85700
C1714       C  0.66927120  0.68953711  0.71061851    -0.54600
C1715       C  0.69468119  0.68736903  0.73494455     0.08600
C1716       C  0.69554342  0.71524048  0.76307895     0.19600
C1717       C  0.63863435  0.71736440  0.76092087    -0.55300
C1718       C  0.66393559  0.71515720  0.78544491     0.08700
C1719       C  0.67032285  0.74708232  0.71446123    -0.54800
C1720       C  0.69576439  0.74530160  0.73826511     0.09300
H1721       H  0.66448142  0.67218865  0.68860121     0.13800
H1722       H  0.71516286  0.71408716  0.78149392    -0.00500
H1723       H  0.61433194  0.71793514  0.77102153     0.14100
H1724       H  0.66692464  0.76734521  0.69627476     0.13900
C1725       C  0.85168887  0.71296964  0.72682823     0.85700
C1726       C  0.83079748  0.74274129  0.72236708    -0.54600
C1727       C  0.80366609  0.74260904  0.74375432     0.08600
C1728       C  0.80092034  0.71271871  0.76825714     0.19600
C1729       C  0.85791611  0.71101341  0.77122026    -0.55300
C1730       C  0.83083114  0.71101180  0.79328833     0.08700
C1731       C  0.82966620  0.68509069  0.71871601    -0.54800
C1732       C  0.80269872  0.68479788  0.74044472     0.09300
H1733       H  0.83738438  0.76207192  0.70367184     0.13800
H1734       H  0.78001550  0.71264983  0.78466077    -0.00500
H1735       H  0.88108768  0.71021138  0.78424233     0.14100
H1736       H  0.83542103  0.66726682  0.69746286     0.13900
C1737       C  0.75152678  0.81770110  0.72711422     0.85700
C1738       C  0.72290857  0.79647637  0.71813408    -0.54600
C1739       C  0.72117747  0.76996719  0.74052654     0.08600
C1740       C  0.74892670  0.76742946  0.76867694     0.19600
C1741       C  0.74942025  0.82394149  0.77129906    -0.55300
C1742       C  0.74803505  0.79724383  0.79354526     0.08700
C1743       C  0.78026825  0.79498491  0.72207050    -0.54800
C1744       C  0.77912742  0.76859102  0.74421088     0.09300
H1745       H  0.70603248  0.80200839  0.69555579     0.13800
H1746       H  0.74789686  0.74673988  0.78492802    -0.00500
H1747       H  0.74906322  0.84737286  0.78343195     0.14100
H1748       H  0.79898471  0.79810065  0.70121891     0.13900
O1749       O  0.52815906  0.74118661  0.59555716    -0.72600
O1750       O  0.96121541  0.73608733  0.52347523    -0.72800
O1751       O  0.96471735  0.73906694  0.60037579    -0.72700
O1752       O  0.52485308  0.73758914  0.51810446    -0.72700
O1753       O  0.52836318  0.68679079  0.52307102    -0.72600
O1754       O  0.96664920  0.68806993  0.60257540    -0.72700
O1755       O  0.96499169  0.68515697  0.52504262    -0.72600
O1756       O  0.52975008  0.69039165  0.60054133    -0.72800
V1757       V  0.49484885  0.73734673  0.55920510     1.35200
V1758       V  0.49732033  0.68844628  0.56294023     1.35200
C1759       C  0.54029285  0.71674983  0.61052886     0.76600
C1760       C  0.95172527  0.70970243  0.51210044     0.76700
C1761       C  0.95515415  0.71364753  0.61490853     0.76600
C1762       C  0.53708440  0.71195247  0.50702767     0.76500
O1763       O  0.72378599  0.93049247  0.52622288    -0.72600
O1764       O  0.72862891  0.99669930  0.59850567    -0.72800
O1765       O  0.72614115  0.99327084  0.52079717    -0.72700
O1766       O  0.72652543  0.93375367  0.60368910    -0.72700
O1767       O  0.77765252  0.93127918  0.60023939    -0.72600
O1768       O  0.77729788  0.99085440  0.51865640    -0.72700
O1769       O  0.77981151  0.99408296  0.59610695    -0.72000
O1770       O  0.77499791  0.92805536  0.52284793    -0.72800
V1771       V  0.72724572  0.96353411  0.56224016     1.35200
V1772       V  0.77643833  0.96113250  0.55954176     1.35200
C1773       C  0.74844088  0.91779554  0.51236100     0.76600
C1774       C  0.75186350  0.50615690  0.61148363     0.76700
C1775       C  0.74862709  0.50266838  0.50673474     0.76600
C1776       C  0.75233523  0.92207762  0.61589034     0.76500
C1777       C  0.72552560  0.89086580  0.66818223    -0.27100
C1778       C  0.75308447  0.89779180  0.64708589    -0.15200
C1779       C  0.78113919  0.88106766  0.65604063     0.35400
C1780       C  0.78071937  0.85701782  0.68369277    -0.26600
C1781       C  0.75252966  0.84771915  0.70212238    -0.15800
C1782       C  0.72518257  0.86655712  0.69595726     0.36500
N1783       N  0.69688920  0.86102777  0.71768020    -0.90100
H1784       H  0.70398713  0.90421243  0.66298686     0.17600
H1785       H  0.80313642  0.84607896  0.69042301     0.17600
N1786       N  0.81029772  0.88784879  0.63667845    -0.89100
H1787       H  0.67864334  0.85653278  0.69821322     0.35000
H1788       H  0.69107382  0.88157882  0.73263557     0.40100
H1789       H  0.81821013  0.86743027  0.62284231     0.39700
H1790       H  0.82701136  0.89383720  0.65751768     0.34600
C1791       C  0.91133880  0.70952017  0.71060042    -0.27100
C1792       C  0.87965948  0.71325623  0.69848356    -0.15200
C1793       C  0.87371411  0.71689539  0.65829837     0.35400
C1794       C  0.89879888  0.71749044  0.63187850    -0.26600
C1795       C  0.92997779  0.71380174  0.64420880    -0.15800
C1796       C  0.93650862  0.70973077  0.68374805     0.36500
N1797       N  0.96865766  0.70565333  0.69636291    -0.90100
H1798       H  0.91695527  0.70607985  0.74067474     0.17600
H1799       H  0.89380627  0.72040257  0.60134639     0.17600
N1800       N  0.84201530  0.71988713  0.64403499    -0.89100
H1801       H  0.96955773  0.70269680  0.72635707     0.35000
H1802       H  0.98066370  0.72637622  0.69008221     0.40100
H1803       H  0.83816671  0.70172540  0.62443206     0.39700
H1804       H  0.84003250  0.74117949  0.62906818     0.34600
C1805       C  0.57065216  0.69489015  0.66626131    -0.27100
C1806       C  0.56655529  0.71866509  0.63852383    -0.15200
C1807       C  0.58856212  0.74305135  0.63666421     0.35400
C1808       C  0.61420263  0.74325670  0.66217228    -0.26600
C1809       C  0.61878235  0.71940797  0.69025404    -0.15800
C1810       C  0.59634324  0.69502678  0.69190852     0.36500
N1811       N  0.59977644  0.66997602  0.71935478    -0.90100
H1812       H  0.55388098  0.67589750  0.66797830     0.17600
H1813       H  0.63048948  0.76212709  0.65822316     0.17600
N1814       N  0.58581355  0.76710604  0.60775115    -0.89100
H1815       H  0.57942024  0.66952189  0.73656745     0.35000
H1816       H  0.60121249  0.64884681  0.70415359     0.40100
H1817       H  0.60631903  0.76658955  0.59078005     0.39700
H1818       H  0.58460035  0.78880950  0.62170374     0.34600
C1819       C  0.72379740  0.54132914  0.65807695    -0.27100
C1820       C  0.75239987  0.53172947  0.64072527    -0.15200
C1821       C  0.78055145  0.54681200  0.65160514     0.35400
C1822       C  0.77899028  0.57243118  0.67702558    -0.26600
C1823       C  0.74996376  0.58391741  0.69193839    -0.15800
C1824       C  0.72237380  0.56648366  0.68425037     0.36500
N1825       N  0.69288872  0.57430128  0.70288567    -0.90100
H1826       H  0.70224681  0.52901949  0.65136480     0.17600
H1827       H  0.80103862  0.58259084  0.68586956     0.17600
N1828       N  0.81070217  0.53632178  0.63687332    -0.89100
H1829       H  0.67482501  0.55970167  0.69336207     0.35000
H1830       H  0.69553630  0.56987089  0.73242991     0.40100
H1831       H  0.81547163  0.51428984  0.64905757     0.39700
H1832       H  0.82880424  0.55101299  0.64606398     0.34600
C1833       C  0.77205112  0.88477233  0.95934291    -0.27100
C1834       C  0.74772610  0.89042265  0.98613264    -0.15200
C1835       C  0.72135418  0.87046832  0.98668794     0.35400
C1836       C  0.71962096  0.84579327  0.96007598    -0.26600
C1837       C  0.74400620  0.83968841  0.93303271    -0.15800
C1838       C  0.77039646  0.85988140  0.93292141     0.36500
N1839       N  0.79584799  0.85505074  0.90608528    -0.90100
H1840       H  0.79243444  0.89994152  0.95860623     0.17600
H1841       H  0.69897108  0.83150343  0.96178191     0.17600
N1842       N  0.69494037  0.87573081  0.51338530    -0.89100
H1843       H  0.81666547  0.85161143  0.92183367     0.35000
H1844       H  0.79827466  0.87548719  0.88957083     0.40100
H1845       H  0.70461502  0.87104648  0.54061470     0.39700
H1846       H  0.67691813  0.85947756  0.50941980     0.34600
C1847       C  0.89496631  0.71526371  0.99794625    -0.27100
C1848       C  0.92497854  0.70611289  0.98504075    -0.15200
C1849       C  0.92905728  0.69477306  0.94729430     0.35400
C1850       C  0.90322586  0.69524036  0.92189556    -0.26600
C1851       C  0.87318908  0.70646372  0.93370889    -0.15800
C1852       C  0.86872324  0.71415508  0.97333468     0.36500
N1853       N  0.83768088  0.72078898  0.98860338    -0.90100
H1854       H  0.89255200  0.72638699  0.52746380     0.17600
H1855       H  0.90678312  0.68603953  0.89317458     0.17600
N1856       N  0.95957539  0.68363651  0.93462426    -0.89100
H1857       H  0.83940207  0.73073501  0.51807201     0.35000
H1858       H  0.82464989  0.70015076  0.98709366     0.40100
H1859       H  0.96507506  0.66340737  0.95052959     0.39700
H1860       H  0.95883891  0.67688331  0.90562034     0.34600
C1861       C  0.59342761  0.70876741  0.99059434    -0.27100
C1862       C  0.56223600  0.71145604  0.97794696    -0.15200
C1863       C  0.55589685  0.71381880  0.93812334     0.35400
C1864       C  0.58121503  0.71301359  0.91141184    -0.26600
C1865       C  0.61292102  0.71041199  0.92390081    -0.15800
C1866       C  0.61864427  0.70849306  0.96428969     0.36500
N1867       N  0.65028704  0.70644671  0.97890014    -0.90100
H1868       H  0.59851062  0.70715206  0.52084081     0.17600
H1869       H  0.57566644  0.71477474  0.88111654     0.17600
N1870       N  0.52377585  0.71648014  0.92497348    -0.89100
H1871       H  0.65240190  0.68586096  0.99526873     0.35000
H1872       H  0.65385267  0.72549545  0.99727869     0.40100
H1873       H  0.51456268  0.73783196  0.93498959     0.39700
H1874       H  0.52296663  0.71747121  0.89479364     0.34600
C1875       C  0.77449894  0.56381508  0.93217810    -0.27100
C1876       C  0.74510206  0.57658841  0.92052470    -0.15200
C1877       C  0.71751080  0.56004058  0.93119486     0.35400
C1878       C  0.71956298  0.53561002  0.95874462    -0.26600
C1879       C  0.74877099  0.52568223  0.97409513    -0.15800
C1880       C  0.77672786  0.53895189  0.95887029     0.36500
N1881       N  0.80737895  0.52770652  0.97088733    -0.90100
H1882       H  0.79617716  0.57331079  0.92062323     0.17600
H1883       H  0.69809779  0.52428959  0.96830122     0.17600
N1884       N  0.68758689  0.56760160  0.91373816    -0.89100
H1885       H  0.82534786  0.54108899  0.95848560     0.35000
H1886       H  0.81028436  0.50498291  0.96003417     0.40100
H1887       H  0.68954527  0.56273371  0.88422736     0.39700
H1888       H  0.66980469  0.55315388  0.92461450     0.34600
loop_ 
_geom_bond_atom_site_label_1 
_geom_bond_atom_site_label_2 
_geom_bond_distance 
_geom_bond_site_symmetry_2 
_ccdc_geom_bond_type 
C1            C2   1.556       .  S
C1            C7   1.557       .  S
C1            C5   1.553       .  S
C1          C224   1.543       .  S
C2            H9   1.083       .  S
C2            C3   1.369       .  D
C3            C4   1.534       .  S
C3           C20   1.516       .  S
C4            C8   1.536       .  S
C4            C6   1.538       .  S
C4           H10   1.045       .  S
C5           H11   1.085       .  S
C5            C6   1.371       .  D
C6           C54   1.521       .  S
C7           H12   1.082       .  S
C7            C8   1.362       .  D
C8           C27   1.516       .  S
C13          C14   1.546       .  S
C13          C19   1.549       .  S
C13          C17   1.562       .  S
C13         C213   1.536       .  S
C14          H21   1.084       .  S
C14          C15   1.364       .  D
C15          C16   1.534       .  S
C15          C44   1.514       .  S
C16          C20   1.541       .  S
C16          C18   1.540       .  S
C16          H22   1.049       .  S
C17          H23   1.080       .  S
C17          C18   1.374       .  D
C18          C66   1.521       .  S
C19          H24   1.085       .  S
C19          C20   1.363       .  D
C25          C26   1.546       .  S
C25          C31   1.552       .  S
C25          C29   1.557       .  S
C25         C199   1.531       .  S
C26          H33   1.084       .  S
C26          C27   1.366       .  D
C27          C28   1.535       .  S
C28          C32   1.541       .  S
C28          C30   1.543       .  S
C28          H34   1.048       .  S
C29          H35   1.082       .  S
C29          C30   1.365       .  D
C30          C78   1.516       .  S
C31          H36   1.084       .  S
C31          C32   1.363       .  D
C32          C39   1.517       .  S
C37          C38   1.555       .  S
C37          C43   1.557       .  S
C37          C41   1.553       .  S
C37         C185   1.540       .  S
C38          H45   1.084       .  S
C38          C39   1.369       .  D
C39          C40   1.533       .  S
C40          C44   1.533       .  S
C40          C42   1.539       .  S
C40          H46   1.045       .  S
C41          H47   1.085       .  S
C41          C42   1.369       .  D
C42          C90   1.516       .  S
C43          H48   1.076       .  S
C43          C44   1.361       .  D
C49          C50   1.556       .  S
C49          C55   1.558       .  S
C49          C53   1.553       .  S
C49         C171   1.542       .  S
C50          H57   1.077       .  S
C50          C51   1.362       .  D
C51          C52   1.533       .  S
C51          C80   1.511       .  S
C52          C56   1.540       .  S
C52          C54   1.541       .  S
C52          H58   1.045       .  S
C53          H59   1.085       .  S
C53          C54   1.367       .  D
C55          H60   1.085       .  S
C55          C56   1.370       .  D
C56          C63   1.523       .  S
C61          C62   1.557       .  S
C61          C67   1.555       .  S
C61          C65   1.553       .  S
C61         C157   1.540       .  S
C62          H69   1.085       .  S
C62          C63   1.370       .  D
C63          C64   1.540       .  S
C64          C68   1.539       .  S
C64          C66   1.541       .  S
C64          H70   1.047       .  S
C65          H71   1.085       .  S
C65          C66   1.369       .  D
C67          H72   1.075       .  S
C67          C68   1.358       .  D
C68          C87   1.515       .  S
C73          C74   1.545       .  S
C73          C79   1.544       .  S
C73          C77   1.561       .  S
C73         C140   1.534       .  S
C74          H81   1.084       .  S
C74          C75   1.364       .  D
C75          C76   1.531       .  S
C75          C92   1.507       .  S
C76          C80   1.534       .  S
C76          C78   1.536       .  S
C76          H82   1.049       .  S
C77          H83   1.080       .  S
C77          C78   1.376       .  D
C79          H84   1.084       .  S
C79          C80   1.363       .  D
C85          C86   1.552       .  S
C85          C91   1.554       .  S
C85          C89   1.552       .  S
C85         C129   1.539       .  S
C86          H93   1.083       .  S
C86          C87   1.370       .  D
C87          C88   1.530       .  S
C88          C92   1.531       .  S
C88          C90   1.538       .  S
C88          H94   1.046       .  S
C89          H95   1.085       .  S
C89          C90   1.372       .  D
C91          H96   1.077       .  S
C91          C92   1.358       .  D
O97         V105   1.899   1_455  S
O97         C107   1.266       .  A
O98        V1049   1.895       .  S
O98         C108   1.263       .  A
O99        V1049   1.900       .  S
O99         C109   1.263       .  A
O100        V105   1.904   1_455  S
O100        C110   1.264       .  A
O101        V106   1.901       .  S
O101        C110   1.264       .  A
O102       V1050   1.901       .  S
O102        C109   1.263       .  A
O103       V1050   1.899       .  S
O103        C108   1.263       .  A
O104        V106   1.896       .  S
O104        C107   1.264       .  A
V105       O1042   1.894       .  S
V105       O1043   1.899       .  S
V105        V106   2.088   1_655  T
V106       O1046   1.902   1_455  S
V106       O1047   1.898   1_455  S
C107        C154   1.482       .  S
C108        C432   1.465   1_554  S
C109        C143   1.468       .  S
C110        C446   1.471   1_554  S
O111        V119   1.895       .  S
O111        C121   1.264       .  A
O112        V119   1.898       .  S
O112        C594   1.264       .  A
O113        V119   1.909       .  S
O113        C595   1.268       .  A
O114        V119   1.908       .  S
O114        C124   1.266       .  A
O115        V120   1.891       .  S
O115        C124   1.263       .  A
O116        V120   1.895       .  S
O116        C595   1.263       .  A
O117        V120   1.903       .  S
O117        C594   1.266       .  A
O118        V120   1.906       .  S
O118        C121   1.266       .  A
V119        V120   2.083       .  T
C121        C418   1.483   1_554  S
C122        O584   1.264   1_545  A
C122        O589   1.266   1_545  A
C122        C168   1.488       .  S
C123        O585   1.268   1_545  A
C123        O588   1.263   1_545  A
C123        C463   1.494   1_554  S
C124        C126   1.489       .  S
C125        C126   1.406       .  A
C125        C130   1.408       .  A
C125        H132   1.083       .  S
C126        C127   1.414       .  A
C127        C128   1.401       .  A
C127        N134   1.440       .  S
C128        C129   1.410       .  A
C128        H133   1.076       .  S
C129        C130   1.414       .  A
C130        N131   1.432       .  S
N131        H135   1.046       .  S
N131        H136   1.045       .  S
N134        H137   1.046       .  S
N134        H138   1.045       .  S
C139        C140   1.412       .  A
C139        C144   1.412       .  A
C139        H146   1.077       .  S
C140        C141   1.421       .  A
C141        C142   1.398       .  A
C141        N148   1.434       .  S
C142        C143   1.393       .  A
C142        H147   1.084       .  S
C143        C144   1.407       .  A
C144        N145   1.438       .  S
N145        H149   1.045       .  S
N145        H150   1.046       .  S
N148        H151   1.046       .  S
N148        H152   1.046       .  S
C153        C154   1.404       .  A
C153        C158   1.405       .  A
C153        H160   1.084       .  S
C154        C155   1.406       .  A
C155        C156   1.400       .  A
C155        N162   1.434       .  S
C156        C157   1.415       .  A
C156        H161   1.073       .  S
C157        C158   1.416       .  A
C158        N159   1.433       .  S
N159        H163   1.046       .  S
N159        H164   1.046       .  S
N162        H165   1.046       .  S
N162        H166   1.046       .  S
C167        C168   1.404       .  A
C167        C172   1.408       .  A
C167        H174   1.083       .  S
C168        C169   1.410       .  A
C169        C170   1.405       .  A
C169        N176   1.439       .  S
C170        C171   1.414       .  A
C170        H175   1.075       .  S
C171        C172   1.419       .  A
C172        N173   1.439       .  S
N173        H177   1.046       .  S
N173        H178   1.044       .  S
N176        H179   1.046       .  S
N176        H180   1.046       .  S
C181        C182   1.404       .  A
C181        C186   1.405       .  A
C181        H188   1.084       .  S
C182        C357   1.486       .  S
C182        C183   1.412       .  A
C183        C184   1.404       .  A
C183        N426   1.439       .  S
C184        C185   1.413       .  A
C184        H189   1.073       .  S
C185        C186   1.416       .  A
C186        N187   1.433       .  S
N187        H191   1.045       .  S
N187        H192   1.046       .  S
N190        C419   1.440   1_554  S
N190        H193   1.046       .  S
N190        H194   1.046       .  S
C195        C196   1.396       .  A
C195        C200   1.403       .  A
C195        H438   1.084       .  S
C196        C344   1.464       .  S
C196        C197   1.404       .  A
C197        C198   1.404       .  A
C197        N204   1.438       .  S
C198        C199   1.412       .  A
C198        H203   1.079       .  S
C199        C200   1.422       .  A
C200        N201   1.439       .  S
N201        H206   1.045       .  S
N201        H441   1.046       .  S
H202        C431   1.084   1_554  S
N204        H207   1.045       .  S
N204        H208   1.046       .  S
H205        N437   1.046   1_554  S
C209        C210   1.394       .  A
C209        C214   1.399       .  A
C209        H452   1.085       .  S
C210        C346   1.471       .  S
C210        C211   1.408       .  A
C211        C212   1.412       .  A
C211        N218   1.437       .  S
C212        C213   1.412       .  A
C212        H217   1.077       .  S
C213        C214   1.421       .  A
C214        N215   1.434       .  S
N215        H219   1.046       .  S
N215        H220   1.046       .  S
H216        C445   1.085   1_554  S
N218        H221   1.046       .  S
N218        H222   1.045       .  S
C223        C224   1.410       .  A
C223        C228   1.405       .  A
C223        H230   1.080       .  S
C224        C225   1.419       .  A
C225        C226   1.411       .  A
C225        N232   1.437       .  S
C226        C227   1.406       .  A
C226        H231   1.083       .  S
C227        C359   1.495       .  S
C227        C228   1.416       .  A
C228        N229   1.439       .  S
N229        H233   1.046       .  S
N229        H234   1.046       .  S
N232        H235   1.045       .  S
N232        H236   1.046       .  S
C237        C238   1.558       .  S
C237        C243   1.555       .  S
C237        C241   1.553       .  S
C237        C460   1.543       .  S
C238        H245   1.083       .  S
C238        C239   1.370       .  D
C239        C240   1.533       .  S
C239        C256   1.517       .  S
C240        C244   1.535       .  S
C240        C242   1.537       .  S
C240        H246   1.045       .  S
C241        H247   1.085       .  S
C241        C242   1.372       .  D
C242        C290   1.520       .  S
C243        H248   1.082       .  S
C243        C244   1.361       .  D
C244        C263   1.514       .  S
C249        C250   1.546       .  S
C249        C255   1.550       .  S
C249        C253   1.562       .  S
C249        C449   1.536       .  S
C250        H257   1.084       .  S
C250        C251   1.363       .  D
C251        C252   1.536       .  S
C251        C280   1.515       .  S
C252        C256   1.542       .  S
C252        C254   1.542       .  S
C252        H258   1.049       .  S
C253        H259   1.080       .  S
C253        C254   1.373       .  D
C254        C302   1.522       .  S
C255        H260   1.085       .  S
C255        C256   1.364       .  D
C261        C262   1.545       .  S
C261        C267   1.553       .  S
C261        C265   1.558       .  S
C261        C435   1.533       .  S
C262        H269   1.084       .  S
C262        C263   1.366       .  D
C263        C264   1.535       .  S
C264        C268   1.540       .  S
C264        C266   1.540       .  S
C264        H270   1.048       .  S
C265        H271   1.081       .  S
C265        C266   1.367       .  D
C266        C314   1.516       .  S
C267        H272   1.084       .  S
C267        C268   1.365       .  D
C268        C275   1.516       .  S
C273        C274   1.552       .  S
C273        C279   1.559       .  S
C273        C277   1.555       .  S
C273        C421   1.542       .  S
C274        H281   1.085       .  S
C274        C275   1.367       .  D
C275        C276   1.534       .  S
C276        C280   1.532       .  S
C276        C278   1.541       .  S
C276        H282   1.045       .  S
C277        H283   1.085       .  S
C277        C278   1.370       .  D
C278        C326   1.518       .  S
C279        H284   1.076       .  S
C279        C280   1.363       .  D
C285        C286   1.557       .  S
C285        C291   1.556       .  S
C285        C289   1.551       .  S
C285        C407   1.539       .  S
C286        H293   1.079       .  S
C286        C287   1.364       .  D
C287        C288   1.533       .  S
C287        C316   1.513       .  S
C288        C292   1.539       .  S
C288        C290   1.541       .  S
C288        H294   1.045       .  S
C289        H295   1.085       .  S
C289        C290   1.366       .  D
C291        H296   1.084       .  S
C291        C292   1.368       .  D
C292        C299   1.520       .  S
C297        C298   1.553       .  S
C297        C303   1.554       .  S
C297        C301   1.556       .  S
C297        C393   1.540       .  S
C298        H305   1.085       .  S
C298        C299   1.369       .  D
C299        C300   1.538       .  S
C300        C304   1.538       .  S
C300        C302   1.541       .  S
C300        H306   1.048       .  S
C301        H307   1.084       .  S
C301        C302   1.371       .  D
C303        H308   1.077       .  S
C303        C304   1.359       .  D
C304        C323   1.513       .  S
C309        C310   1.546       .  S
C309        C315   1.546       .  S
C309        C313   1.560       .  S
C309        C376   1.535       .  S
C310        H317   1.084       .  S
C310        C311   1.364       .  D
C311        C312   1.534       .  S
C311        C328   1.510       .  S
C312        C316   1.536       .  S
C312        C314   1.537       .  S
C312        H318   1.050       .  S
C313        H319   1.080       .  S
C313        C314   1.374       .  D
C315        H320   1.084       .  S
C315        C316   1.364       .  D
C321        C322   1.551       .  S
C321        C327   1.556       .  S
C321        C325   1.554       .  S
C321        C365   1.541       .  S
C322        H329   1.083       .  S
C322        C323   1.369       .  D
C323        C324   1.531       .  S
C324        C328   1.532       .  S
C324        C326   1.538       .  S
C324        H330   1.046       .  S
C325        H331   1.085       .  S
C325        C326   1.373       .  D
C327        H332   1.079       .  S
C327        C328   1.361       .  D
O333        V341   1.902   1_455  S
O333        C343   1.266       .  A
O334       V1285   1.896       .  S
O334        C344   1.263       .  A
O335       V1285   1.900       .  S
O335        C345   1.263       .  A
O336        V341   1.903   1_455  S
O336        C346   1.264       .  A
O337        V342   1.902       .  S
O337        C346   1.264       .  A
O338       V1286   1.901       .  S
O338        C345   1.264       .  A
O339       V1286   1.896       .  S
O339        C344   1.262       .  A
O340        V342   1.897       .  S
O340        C343   1.263       .  A
V341       O1278   1.897       .  S
V341       O1279   1.901       .  S
V341        V342   2.088   1_655  T
V342       O1282   1.901   1_455  S
V342       O1283   1.899   1_455  S
C343        C390   1.480       .  S
C345        C379   1.468       .  S
O347        V355   1.896       .  S
O347        C357   1.264       .  A
O348        V355   1.897       .  S
O348        C830   1.264       .  A
O349        V355   1.911       .  S
O349        C831   1.268       .  A
O350        V355   1.911       .  S
O350        C360   1.267       .  A
O351        V356   1.894       .  S
O351        C360   1.264       .  A
O352        V356   1.896       .  S
O352        C831   1.264       .  A
O353        V356   1.902       .  S
O353        C830   1.265       .  A
O354        V356   1.903       .  S
O354        C357   1.265       .  A
V355        V356   2.082       .  T
C358        O820   1.264   1_545  A
C358        O825   1.266   1_545  A
C358        C404   1.488       .  S
C359        O821   1.268   1_545  A
C359        O824   1.263   1_545  A
C360        C362   1.494       .  S
C361        C362   1.407       .  A
C361        C366   1.408       .  A
C361        H368   1.083       .  S
C362        C363   1.416       .  A
C363        C364   1.404       .  A
C363        N370   1.439       .  S
C364        C365   1.410       .  A
C364        H369   1.077       .  S
C365        C366   1.415       .  A
C366        N367   1.432       .  S
N367        H371   1.046       .  S
N367        H372   1.046       .  S
N370        H373   1.046       .  S
N370        H374   1.046       .  S
C375        C376   1.413       .  A
C375        C380   1.411       .  A
C375        H382   1.077       .  S
C376        C377   1.421       .  A
C377        C378   1.399       .  A
C377        N384   1.434       .  S
C378        C379   1.394       .  A
C378        H383   1.084       .  S
C379        C380   1.406       .  A
C380        N381   1.438       .  S
N381        H385   1.046       .  S
N381        H386   1.046       .  S
N384        H387   1.046       .  S
N384        H388   1.046       .  S
C389        C390   1.403       .  A
C389        C394   1.405       .  A
C389        H396   1.084       .  S
C390        C391   1.405       .  A
C391        C392   1.401       .  A
C391        N398   1.434       .  S
C392        C393   1.416       .  A
C392        H397   1.074       .  S
C393        C394   1.416       .  A
C394        N395   1.432       .  S
N395        H399   1.046       .  S
N395        H400   1.046       .  S
N398        H401   1.046       .  S
N398        H402   1.046       .  S
C403        C404   1.404       .  A
C403        C408   1.406       .  A
C403        H410   1.083       .  S
C404        C405   1.412       .  A
C405        C406   1.405       .  A
C405        N412   1.439       .  S
C406        C407   1.413       .  A
C406        H411   1.076       .  S
C407        C408   1.419       .  A
C408        N409   1.439       .  S
N409        H413   1.046       .  S
N409        H414   1.044       .  S
N412        H415   1.046       .  S
N412        H416   1.046       .  S
C417        C418   1.402       .  A
C417        C422   1.406       .  A
C417        H424   1.084       .  S
C418        C419   1.410       .  A
C419        C420   1.405       .  A
C420        C421   1.413       .  A
C420        H425   1.073       .  S
C421        C422   1.417       .  A
C422        N423   1.433       .  S
N423        H427   1.045       .  S
N423        H428   1.046       .  S
N426        H429   1.046       .  S
N426        H430   1.046       .  S
C431        C432   1.396       .  A
C431        C436   1.403       .  A
C432        C433   1.403       .  A
C433        C434   1.405       .  A
C433        N440   1.437       .  S
C434        C435   1.413       .  A
C434        H439   1.079       .  S
C435        C436   1.422       .  A
C436        N437   1.439       .  S
N437        H442   1.045       .  S
N440        H443   1.045       .  S
N440        H444   1.046       .  S
C445        C446   1.394       .  A
C445        C450   1.399       .  A
C446        C447   1.408       .  A
C447        C448   1.412       .  A
C447        N454   1.437       .  S
C448        C449   1.413       .  A
C448        H453   1.077       .  S
C449        C450   1.420       .  A
C450        N451   1.434       .  S
N451        H455   1.046       .  S
N451        H456   1.046       .  S
N454        H457   1.046       .  S
N454        H458   1.045       .  S
C459        C460   1.411       .  A
C459        C464   1.406       .  A
C459        H466   1.081       .  S
C460        C461   1.418       .  A
C461        C462   1.411       .  A
C461        N468   1.437       .  S
C462        C463   1.406       .  A
C462        H467   1.083       .  S
C463        C464   1.416       .  A
C464        N465   1.439       .  S
N465        H469   1.046       .  S
N465        H470   1.045       .  S
N468        H471   1.045       .  S
N468        H472   1.046       .  S
C473        C474   1.557       .  S
C473        C479   1.556       .  S
C473        C477   1.552       .  S
C473        C696   1.542       .  S
C474        H481   1.082       .  S
C474        C475   1.369       .  D
C475        C476   1.534       .  S
C475        C492   1.515       .  S
C476        C480   1.536       .  S
C476        C478   1.537       .  S
C476        H482   1.045       .  S
C477        H483   1.085       .  S
C477        C478   1.371       .  D
C478        C526   1.520       .  S
C479        H484   1.083       .  S
C479        C480   1.363       .  D
C480        C499   1.515       .  S
C485        C486   1.546       .  S
C485        C491   1.549       .  S
C485        C489   1.562       .  S
C485        C685   1.536       .  S
C486        H493   1.084       .  S
C486        C487   1.364       .  D
C487        C488   1.534       .  S
C487        C516   1.514       .  S
C488        C492   1.540       .  S
C488        C490   1.541       .  S
C488        H494   1.049       .  S
C489        H495   1.080       .  S
C489        C490   1.375       .  D
C490        C538   1.522       .  S
C491        H496   1.085       .  S
C491        C492   1.363       .  D
C497        C498   1.546       .  S
C497        C503   1.553       .  S
C497        C501   1.557       .  S
C497        C671   1.532       .  S
C498        H505   1.084       .  S
C498        C499   1.366       .  D
C499        C500   1.535       .  S
C500        C504   1.539       .  S
C500        C502   1.541       .  S
C500        H506   1.047       .  S
C501        H507   1.082       .  S
C501        C502   1.366       .  D
C502        C550   1.516       .  S
C503        H508   1.084       .  S
C503        C504   1.364       .  D
C504        C511   1.516       .  S
C509        C510   1.552       .  S
C509        C515   1.557       .  S
C509        C513   1.553       .  S
C509        C657   1.539       .  S
C510        H517   1.084       .  S
C510        C511   1.367       .  D
C511        C512   1.535       .  S
C512        C516   1.532       .  S
C512        C514   1.540       .  S
C512        H518   1.046       .  S
C513        H519   1.085       .  S
C513        C514   1.369       .  D
C514        C562   1.516       .  S
C515        H520   1.075       .  S
C515        C516   1.361       .  D
C521        C522   1.553       .  S
C521        C527   1.559       .  S
C521        C525   1.551       .  S
C521        C643   1.540       .  S
C522        H529   1.080       .  S
C522        C523   1.361       .  D
C523        C524   1.533       .  S
C523        C552   1.510       .  S
C524        C528   1.540       .  S
C524        C526   1.541       .  S
C524        H530   1.046       .  S
C525        H531   1.085       .  S
C525        C526   1.368       .  D
C527        H532   1.084       .  S
C527        C528   1.371       .  D
C528        C535   1.522       .  S
C533        C534   1.556       .  S
C533        C539   1.555       .  S
C533        C537   1.554       .  S
C533        C629   1.539       .  S
C534        H541   1.085       .  S
C534        C535   1.369       .  D
C535        C536   1.540       .  S
C536        C540   1.539       .  S
C536        C538   1.541       .  S
C536        H542   1.047       .  S
C537        H543   1.085       .  S
C537        C538   1.369       .  D
C539        H544   1.075       .  S
C539        C540   1.359       .  D
C540        C559   1.515       .  S
C545        C546   1.545       .  S
C545        C551   1.544       .  S
C545        C549   1.561       .  S
C545        C612   1.533       .  S
C546        H553   1.084       .  S
C546        C547   1.363       .  D
C547        C548   1.533       .  S
C547        C564   1.508       .  S
C548        C552   1.533       .  S
C548        C550   1.537       .  S
C548        H554   1.049       .  S
C549        H555   1.080       .  S
C549        C550   1.375       .  D
C551        H556   1.084       .  S
C551        C552   1.363       .  D
C557        C558   1.552       .  S
C557        C563   1.555       .  S
C557        C561   1.552       .  S
C557        C601   1.540       .  S
C558        H565   1.083       .  S
C558        C559   1.370       .  D
C559        C560   1.531       .  S
C560        C564   1.531       .  S
C560        C562   1.538       .  S
C560        H566   1.045       .  S
C561        H567   1.085       .  S
C561        C562   1.371       .  D
C563        H568   1.078       .  S
C563        C564   1.360       .  D
O569        V577   1.899   1_455  S
O569        C579   1.265       .  A
O570       V1521   1.895       .  S
O570        C580   1.263       .  A
O571       V1521   1.899       .  S
O571        C581   1.263       .  A
O572        V577   1.903   1_455  S
O572        C582   1.264       .  A
O573        V578   1.901   1_455  S
O573        C582   1.264       .  A
O574       V1522   1.901       .  S
O574        C581   1.263       .  A
O575       V1522   1.897       .  S
O575        C580   1.263       .  A
O576        V578   1.895   1_455  S
O576        C579   1.263       .  A
V577       O1514   1.895       .  S
V577       O1515   1.899       .  S
V577        V578   2.089       .  T
V578       O1518   1.901       .  S
V578       O1519   1.897       .  S
C579        C626   1.480       .  S
C580        C904   1.464   1_554  S
C581        C615   1.467       .  S
C582        C918   1.471   1_554  S
O583        V591   1.893       .  S
O583        C593   1.263       .  A
O584        V591   1.898       .  S
O585        V591   1.910       .  S
O586        V591   1.911       .  S
O586        C596   1.267       .  A
O587        V592   1.891       .  S
O587        C596   1.263       .  A
O588        V592   1.895       .  S
O589        V592   1.902       .  S
O590        V592   1.904       .  S
O590        C593   1.265       .  A
V591        V592   2.084       .  T
C593        C890   1.481   1_554  S
C594        C640   1.491       .  S
C595        C935   1.494   1_554  S
C596        C598   1.491       .  S
C597        C598   1.407       .  A
C597        C602   1.409       .  A
C597        H604   1.083       .  S
C598        C599   1.415       .  A
C599        C600   1.402       .  A
C599        N606   1.439       .  S
C600        C601   1.409       .  A
C600        H605   1.076       .  S
C601        C602   1.415       .  A
C602        N603   1.432       .  S
N603        H607   1.046       .  S
N603        H608   1.045       .  S
N606        H609   1.046       .  S
N606        H610   1.046       .  S
C611        C612   1.412       .  A
C611        C616   1.411       .  A
C611        H618   1.077       .  S
C612        C613   1.421       .  A
C613        C614   1.398       .  A
C613        N620   1.434       .  S
C614        C615   1.394       .  A
C614        H619   1.084       .  S
C615        C616   1.406       .  A
C616        N617   1.438       .  S
N617        H621   1.046       .  S
N617        H622   1.046       .  S
N620        H623   1.046       .  S
N620        H624   1.046       .  S
C625        C626   1.403       .  A
C625        C630   1.405       .  A
C625        H632   1.084       .  S
C626        C627   1.405       .  A
C627        C628   1.400       .  A
C627        N634   1.434       .  S
C628        C629   1.415       .  A
C628        H633   1.073       .  S
C629        C630   1.416       .  A
C630        N631   1.433       .  S
N631        H635   1.046       .  S
N631        H636   1.046       .  S
N634        H637   1.046       .  S
N634        H638   1.046       .  S
C639        C640   1.406       .  A
C639        C644   1.407       .  A
C639        H646   1.083       .  S
C640        C641   1.412       .  A
C641        C642   1.405       .  A
C641        N648   1.439       .  S
C642        C643   1.413       .  A
C642        H647   1.078       .  S
C643        C644   1.416       .  A
C644        N645   1.438       .  S
N645        H649   1.046       .  S
N645        H650   1.045       .  S
N648        H651   1.045       .  S
N648        H652   1.046       .  S
C653        C654   1.403       .  A
C653        C658   1.405       .  A
C653        H660   1.084       .  S
C654        C829   1.484       .  S
C654        C655   1.411       .  A
C655        C656   1.403       .  A
C655        N898   1.440       .  S
C656        C657   1.412       .  A
C656        H661   1.073       .  S
C657        C658   1.416       .  A
C658        N659   1.433       .  S
N659        H663   1.045       .  S
N659        H664   1.046       .  S
N662        C891   1.440   1_554  S
N662        H665   1.046       .  S
N662        H666   1.046       .  S
C667        C668   1.396       .  A
C667        C672   1.403       .  A
C667        H910   1.084       .  S
C668        C816   1.466       .  S
C668        C669   1.404       .  A
C669        C670   1.405       .  A
C669        N676   1.438       .  S
C670        C671   1.413       .  A
C670        H675   1.079       .  S
C671        C672   1.422       .  A
C672        N673   1.439       .  S
N673        H913   1.046       .  S
N673        H678   1.045       .  S
H674        C903   1.084   1_554  S
N676        H679   1.045       .  S
N676        H680   1.046       .  S
H677        N909   1.046   1_554  S
C681        C682   1.394       .  A
C681        C686   1.399       .  A
C681        H924   1.085       .  S
C682        C818   1.470       .  S
C682        C683   1.408       .  A
C683        C684   1.413       .  A
C683        N690   1.437       .  S
C684        C685   1.412       .  A
C684        H689   1.077       .  S
C685        C686   1.421       .  A
C686        N687   1.434       .  S
N687        H691   1.046       .  S
N687        H692   1.046       .  S
H688        C917   1.085   1_554  S
N690        H693   1.046       .  S
N690        H694   1.045       .  S
C695        C696   1.409       .  A
C695        C700   1.405       .  A
C695        H702   1.082       .  S
C696        C697   1.419       .  A
C697        C698   1.411       .  A
C697        N704   1.437       .  S
C698        C699   1.406       .  A
C698        H703   1.083       .  S
C699        C831   1.495       .  S
C699        C700   1.416       .  A
C700        N701   1.438       .  S
N701        H705   1.046       .  S
N701        H706   1.046       .  S
N704        H707   1.045       .  S
N704        H708   1.046       .  S
C709        C710   1.559       .  S
C709        C715   1.554       .  S
C709        C713   1.553       .  S
C709        C932   1.543       .  S
C710        H717   1.082       .  S
C710        C711   1.370       .  D
C711        C712   1.533       .  S
C711        C728   1.517       .  S
C712        C716   1.535       .  S
C712        C714   1.536       .  S
C712        H718   1.045       .  S
C713        H719   1.085       .  S
C713        C714   1.372       .  D
C714        C762   1.520       .  S
C715        H720   1.083       .  S
C715        C716   1.361       .  D
C716        C735   1.513       .  S
C721        C722   1.547       .  S
C721        C727   1.550       .  S
C721        C725   1.562       .  S
C721        C921   1.537       .  S
C722        H729   1.084       .  S
C722        C723   1.364       .  D
C723        C724   1.535       .  S
C723        C752   1.515       .  S
C724        C728   1.542       .  S
C724        C726   1.541       .  S
C724        H730   1.049       .  S
C725        H731   1.080       .  S
C725        C726   1.373       .  D
C726        C774   1.522       .  S
C727        H732   1.085       .  S
C727        C728   1.363       .  D
C733        C734   1.545       .  S
C733        C739   1.551       .  S
C733        C737   1.557       .  S
C733        C907   1.531       .  S
C734        H741   1.084       .  S
C734        C735   1.365       .  D
C735        C736   1.534       .  S
C736        C740   1.539       .  S
C736        C738   1.541       .  S
C736        H742   1.048       .  S
C737        H743   1.081       .  S
C737        C738   1.367       .  D
C738        C786   1.515       .  S
C739        H744   1.084       .  S
C739        C740   1.364       .  D
C740        C747   1.514       .  S
C745        C746   1.551       .  S
C745        C751   1.559       .  S
C745        C749   1.554       .  S
C745        C893   1.539       .  S
C746        H753   1.085       .  S
C746        C747   1.366       .  D
C747        C748   1.533       .  S
C748        C752   1.533       .  S
C748        C750   1.541       .  S
C748        H754   1.045       .  S
C749        H755   1.085       .  S
C749        C750   1.369       .  D
C750        C798   1.517       .  S
C751        H756   1.075       .  S
C751        C752   1.363       .  D
C757        C758   1.555       .  S
C757        C763   1.558       .  S
C757        C761   1.551       .  S
C757        C879   1.539       .  S
C758        H765   1.080       .  S
C758        C759   1.362       .  D
C759        C760   1.533       .  S
C759        C788   1.512       .  S
C760        C764   1.539       .  S
C760        C762   1.541       .  S
C760        H766   1.045       .  S
C761        H767   1.085       .  S
C761        C762   1.367       .  D
C763        H768   1.084       .  S
C763        C764   1.370       .  D
C764        C771   1.522       .  S
C769        C770   1.555       .  S
C769        C775   1.554       .  S
C769        C773   1.555       .  S
C769        C865   1.541       .  S
C770        H777   1.085       .  S
C770        C771   1.369       .  D
C771        C772   1.540       .  S
C772        C776   1.539       .  S
C772        C774   1.541       .  S
C772        H778   1.048       .  S
C773        H779   1.085       .  S
C773        C774   1.370       .  D
C775        H780   1.075       .  S
C775        C776   1.358       .  D
C776        C795   1.514       .  S
C781        C782   1.545       .  S
C781        C787   1.545       .  S
C781        C785   1.561       .  S
C781        C848   1.533       .  S
C782        H789   1.084       .  S
C782        C783   1.363       .  D
C783        C784   1.534       .  S
C783        C800   1.509       .  S
C784        C788   1.535       .  S
C784        C786   1.536       .  S
C784        H790   1.049       .  S
C785        H791   1.080       .  S
C785        C786   1.374       .  D
C787        H792   1.084       .  S
C787        C788   1.363       .  D
C793        C794   1.552       .  S
C793        C799   1.555       .  S
C793        C797   1.553       .  S
C793        C837   1.541       .  S
C794        H801   1.083       .  S
C794        C795   1.370       .  D
C795        C796   1.530       .  S
C796        C800   1.531       .  S
C796        C798   1.537       .  S
C796        H802   1.045       .  S
C797        H803   1.085       .  S
C797        C798   1.372       .  D
C799        H804   1.079       .  S
C799        C800   1.361       .  D
O805        V813   1.900   1_455  S
O805        C815   1.266       .  A
O806       V1757   1.896       .  S
O806        C816   1.263       .  A
O807       V1757   1.899       .  S
O807        C817   1.263       .  A
O808        V813   1.902   1_455  S
O808        C818   1.263       .  A
O809        V814   1.902   1_455  S
O809        C818   1.264       .  A
O810       V1758   1.900       .  S
O810        C817   1.263       .  A
O811       V1758   1.898       .  S
O811        C816   1.263       .  A
O812        V814   1.897   1_455  S
O812        C815   1.263       .  A
V813       O1750   1.896       .  S
V813       O1751   1.899       .  S
V813        V814   2.089       .  T
V814       O1754   1.901       .  S
V814       O1755   1.897       .  S
C815        C862   1.481       .  S
C817        C851   1.467       .  S
O819        V827   1.892       .  S
O819        C829   1.263       .  A
O820        V827   1.896       .  S
O821        V827   1.912       .  S
O822        V827   1.913       .  S
O822        C832   1.268       .  A
O823        V828   1.893       .  S
O823        C832   1.264       .  A
O824        V828   1.895       .  S
O825        V828   1.902       .  S
O826        V828   1.904       .  S
O826        C829   1.265       .  A
V827        V828   2.083       .  T
C830        C876   1.490       .  S
C832        C834   1.493       .  S
C833        C834   1.407       .  A
C833        C838   1.410       .  A
C833        H840   1.083       .  S
C834        C835   1.412       .  A
C835        C836   1.400       .  A
C835        N842   1.433       .  S
C836        C837   1.409       .  A
C836        H841   1.078       .  S
C837        C838   1.416       .  A
C838        N839   1.432       .  S
N839        H843   1.046       .  S
N839        H844   1.046       .  S
N842        H845   1.046       .  S
N842        H846   1.046       .  S
C847        C848   1.412       .  A
C847        C852   1.410       .  A
C847        H854   1.077       .  S
C848        C849   1.421       .  A
C849        C850   1.398       .  A
C849        N856   1.434       .  S
C850        C851   1.394       .  A
C850        H855   1.084       .  S
C851        C852   1.406       .  A
C852        N853   1.438       .  S
N853        H857   1.046       .  S
N853        H858   1.046       .  S
N856        H859   1.046       .  S
N856        H860   1.046       .  S
C861        C862   1.403       .  A
C861        C866   1.406       .  A
C861        H868   1.084       .  S
C862        C863   1.405       .  A
C863        C864   1.400       .  A
C863        N870   1.434       .  S
C864        C865   1.415       .  A
C864        H869   1.073       .  S
C865        C866   1.416       .  A
C866        N867   1.433       .  S
N867        H871   1.045       .  S
N867        H872   1.046       .  S
N870        H873   1.046       .  S
N870        H874   1.046       .  S
C875        C876   1.406       .  A
C875        C880   1.407       .  A
C875        H882   1.083       .  S
C876        C877   1.412       .  A
C877        C878   1.405       .  A
C877        N884   1.439       .  S
C878        C879   1.413       .  A
C878        H883   1.077       .  S
C879        C880   1.417       .  A
C880        N881   1.438       .  S
N881        H885   1.046       .  S
N881        H886   1.045       .  S
N884        H887   1.045       .  S
N884        H888   1.046       .  S
C889        C890   1.401       .  A
C889        C894   1.405       .  A
C889        H896   1.084       .  S
C890        C891   1.410       .  A
C891        C892   1.403       .  A
C892        C893   1.413       .  A
C892        H897   1.072       .  S
C893        C894   1.417       .  A
C894        N895   1.433       .  S
N895        H899   1.045       .  S
N895        H900   1.046       .  S
N898        H901   1.046       .  S
N898        H902   1.046       .  S
C903        C904   1.396       .  A
C903        C908   1.402       .  A
C904        C905   1.403       .  A
C905        C906   1.404       .  A
C905        N912   1.437       .  S
C906        C907   1.412       .  A
C906        H911   1.079       .  S
C907        C908   1.422       .  A
C908        N909   1.439       .  S
N909        H914   1.045       .  S
N912        H915   1.045       .  S
N912        H916   1.046       .  S
C917        C918   1.394       .  A
C917        C922   1.399       .  A
C918        C919   1.407       .  A
C919        C920   1.412       .  A
C919        N926   1.437       .  S
C920        C921   1.413       .  A
C920        H925   1.077       .  S
C921        C922   1.421       .  A
C922        N923   1.434       .  S
N923        H927   1.046       .  S
N923        H928   1.046       .  S
N926        H929   1.046       .  S
N926        H930   1.045       .  S
C931        C932   1.411       .  A
C931        C936   1.406       .  A
C931        H938   1.081       .  S
C932        C933   1.418       .  A
C933        C934   1.410       .  A
C933        N940   1.437       .  S
C934        C935   1.406       .  A
C934        H939   1.083       .  S
C935        C936   1.416       .  A
C936        N937   1.439       .  S
N937        H941   1.046       .  S
N937        H942   1.046       .  S
N940        H943   1.045       .  S
N940        H944   1.046       .  S
C945        C946   1.557       .  S
C945        C951   1.556       .  S
C945        C949   1.553       .  S
C945       C1168   1.543       .  S
C946        H953   1.083       .  S
C946        C947   1.370       .  D
C947        C948   1.534       .  S
C947        C964   1.516       .  S
C948        C952   1.535       .  S
C948        C950   1.536       .  S
C948        H954   1.045       .  S
C949        H955   1.085       .  S
C949        C950   1.372       .  D
C950        C998   1.520       .  S
C951        H956   1.082       .  S
C951        C952   1.361       .  D
C952        C971   1.514       .  S
C957        C958   1.546       .  S
C957        C963   1.550       .  S
C957        C961   1.562       .  S
C957       C1157   1.537       .  S
C958        H965   1.084       .  S
C958        C959   1.364       .  D
C959        C960   1.533       .  S
C959        C988   1.514       .  S
C960        C964   1.540       .  S
C960        C962   1.539       .  S
C960        H966   1.048       .  S
C961        H967   1.080       .  S
C961        C962   1.374       .  D
C962       C1010   1.520       .  S
C963        H968   1.085       .  S
C963        C964   1.363       .  D
C969        C970   1.545       .  S
C969        C975   1.552       .  S
C969        C973   1.556       .  S
C969       C1143   1.532       .  S
C970        H977   1.084       .  S
C970        C971   1.366       .  D
C971        C972   1.534       .  S
C972        C976   1.541       .  S
C972        C974   1.543       .  S
C972        H978   1.049       .  S
C973        H979   1.081       .  S
C973        C974   1.365       .  D
C974       C1022   1.515       .  S
C975        H980   1.084       .  S
C975        C976   1.364       .  D
C976        C983   1.516       .  S
C981        C982   1.555       .  S
C981        C987   1.557       .  S
C981        C985   1.553       .  S
C981       C1129   1.540       .  S
C982        H989   1.084       .  S
C982        C983   1.370       .  D
C983        C984   1.533       .  S
C984        C988   1.534       .  S
C984        C986   1.540       .  S
C984        H990   1.045       .  S
C985        H991   1.085       .  S
C985        C986   1.368       .  D
C986       C1034   1.517       .  S
C987        H992   1.076       .  S
C987        C988   1.360       .  D
C993        C994   1.555       .  S
C993        C999   1.559       .  S
C993        C997   1.551       .  S
C993       C1115   1.539       .  S
C994       H1001   1.080       .  S
C994        C995   1.362       .  D
C995        C996   1.534       .  S
C995       C1024   1.511       .  S
C996       C1000   1.539       .  S
C996        C998   1.542       .  S
C996       H1002   1.045       .  S
C997       H1003   1.085       .  S
C997        C998   1.366       .  D
C999       H1004   1.084       .  S
C999       C1000   1.370       .  D
C1000      C1007   1.523       .  S
C1005      C1006   1.557       .  S
C1005      C1011   1.553       .  S
C1005      C1009   1.552       .  S
C1005      C1101   1.537       .  S
C1006      H1013   1.085       .  S
C1006      C1007   1.369       .  D
C1007      C1008   1.540       .  S
C1008      C1012   1.540       .  S
C1008      C1010   1.542       .  S
C1008      H1014   1.048       .  S
C1009      H1015   1.085       .  S
C1009      C1010   1.368       .  D
C1011      H1016   1.075       .  S
C1011      C1012   1.358       .  D
C1012      C1031   1.513       .  S
C1017      C1018   1.546       .  S
C1017      C1023   1.545       .  S
C1017      C1021   1.561       .  S
C1017      C1084   1.535       .  S
C1018      H1025   1.084       .  S
C1018      C1019   1.365       .  D
C1019      C1020   1.532       .  S
C1019      C1036   1.509       .  S
C1020      C1024   1.534       .  S
C1020      C1022   1.535       .  S
C1020      H1026   1.048       .  S
C1021      H1027   1.080       .  S
C1021      C1022   1.375       .  D
C1023      H1028   1.084       .  S
C1023      C1024   1.364       .  D
C1029      C1030   1.552       .  S
C1029      C1035   1.555       .  S
C1029      C1033   1.553       .  S
C1029      C1073   1.540       .  S
C1030      H1037   1.083       .  S
C1030      C1031   1.370       .  D
C1031      C1032   1.529       .  S
C1032      C1036   1.532       .  S
C1032      C1034   1.538       .  S
C1032      H1038   1.045       .  S
C1033      H1039   1.085       .  S
C1033      C1034   1.372       .  D
C1035      H1040   1.077       .  S
C1035      C1036   1.358       .  D
O1041      V1049   1.899       .  S
O1041      C1051   1.265       .  A
O1042      C1052   1.262       .  A
O1043      C1053   1.263       .  A
O1044      V1049   1.905       .  S
O1044      C1054   1.264       .  A
O1045      V1050   1.901       .  S
O1045      C1054   1.264       .  A
O1046      C1053   1.264       .  A
O1047      C1052   1.263       .  A
O1048      V1050   1.895       .  S
O1048      C1051   1.264       .  A
V1049      V1050   2.088       .  T
C1051      C1098   1.481       .  S
C1052      C1376   1.463   1_554  S
C1053      C1087   1.468       .  S
C1054      C1390   1.472   1_554  S
O1055      V1063   1.896       .  S
O1055      C1065   1.264       .  A
O1056      V1063   1.898       .  S
O1056      C1538   1.265       .  A
O1057      V1063   1.911       .  S
O1057      C1539   1.268       .  A
O1058      V1063   1.910       .  S
O1058      C1068   1.267       .  A
O1059      V1064   1.890       .  S
O1059      C1068   1.263       .  A
O1060      V1064   1.894       .  S
O1060      C1539   1.263       .  A
O1061      V1064   1.903       .  S
O1061      C1538   1.266       .  A
O1062      V1064   1.906       .  S
O1062      C1065   1.266       .  A
V1063      V1064   2.083       .  T
C1065      C1362   1.487   1_554  S
C1066      O1528   1.264   1_545  A
C1066      O1533   1.266   1_545  A
C1066      C1112   1.490       .  S
C1067      O1529   1.268   1_545  A
C1067      O1532   1.263   1_545  A
C1067      C1407   1.492   1_554  S
C1068      C1070   1.489       .  S
C1069      C1070   1.406       .  A
C1069      C1074   1.408       .  A
C1069      H1076   1.084       .  S
C1070      C1071   1.414       .  A
C1071      C1072   1.401       .  A
C1071      N1078   1.440       .  S
C1072      C1073   1.409       .  A
C1072      H1077   1.075       .  S
C1073      C1074   1.415       .  A
C1074      N1075   1.432       .  S
N1075      H1079   1.046       .  S
N1075      H1080   1.045       .  S
N1078      H1081   1.046       .  S
N1078      H1082   1.046       .  S
C1083      C1084   1.413       .  A
C1083      C1088   1.411       .  A
C1083      H1090   1.077       .  S
C1084      C1085   1.421       .  A
C1085      C1086   1.399       .  A
C1085      N1092   1.434       .  S
C1086      C1087   1.394       .  A
C1086      H1091   1.084       .  S
C1087      C1088   1.406       .  A
C1088      N1089   1.438       .  S
N1089      H1093   1.046       .  S
N1089      H1094   1.046       .  S
N1092      H1095   1.046       .  S
N1092      H1096   1.046       .  S
C1097      C1098   1.403       .  A
C1097      C1102   1.403       .  A
C1097      H1104   1.084       .  S
C1098      C1099   1.406       .  A
C1099      C1100   1.400       .  A
C1099      N1106   1.434       .  S
C1100      C1101   1.414       .  A
C1100      H1105   1.073       .  S
C1101      C1102   1.415       .  A
C1102      N1103   1.433       .  S
N1103      H1107   1.046       .  S
N1103      H1108   1.045       .  S
N1106      H1109   1.046       .  S
N1106      H1110   1.046       .  S
C1111      C1112   1.406       .  A
C1111      C1116   1.406       .  A
C1111      H1118   1.083       .  S
C1112      C1113   1.412       .  A
C1113      C1114   1.406       .  A
C1113      N1120   1.439       .  S
C1114      C1115   1.413       .  A
C1114      H1119   1.078       .  S
C1115      C1116   1.417       .  A
C1116      N1117   1.438       .  S
N1117      H1121   1.046       .  S
N1117      H1122   1.045       .  S
N1120      H1123   1.046       .  S
N1120      H1124   1.046       .  S
C1125      C1126   1.404       .  A
C1125      C1130   1.405       .  A
C1125      H1132   1.084       .  S
C1126      C1301   1.485       .  S
C1126      C1127   1.412       .  A
C1127      C1128   1.403       .  A
C1127      N1370   1.440       .  S
C1128      C1129   1.413       .  A
C1128      H1133   1.073       .  S
C1129      C1130   1.415       .  A
C1130      N1131   1.433       .  S
N1131      H1135   1.045       .  S
N1131      H1136   1.046       .  S
N1134      C1363   1.440   1_554  S
N1134      H1137   1.046       .  S
N1134      H1138   1.046       .  S
C1139      C1140   1.396       .  A
C1139      C1144   1.403       .  A
C1139      H1382   1.084       .  S
C1140      C1288   1.466       .  S
C1140      C1141   1.404       .  A
C1141      C1142   1.405       .  A
C1141      N1148   1.437       .  S
C1142      C1143   1.412       .  A
C1142      H1147   1.079       .  S
C1143      C1144   1.422       .  A
C1144      N1145   1.439       .  S
N1145      H1385   1.046       .  S
N1145      H1150   1.045       .  S
H1146      C1375   1.084   1_554  S
N1148      H1151   1.045       .  S
N1148      H1152   1.046       .  S
H1149      N1381   1.046   1_554  S
C1153      C1154   1.394       .  A
C1153      C1158   1.399       .  A
C1153      H1396   1.085       .  S
C1154      C1290   1.471       .  S
C1154      C1155   1.408       .  A
C1155      C1156   1.412       .  A
C1155      N1162   1.437       .  S
C1156      C1157   1.413       .  A
C1156      H1161   1.077       .  S
C1157      C1158   1.421       .  A
C1158      N1159   1.434       .  S
N1159      H1163   1.046       .  S
N1159      H1164   1.046       .  S
H1160      C1389   1.085   1_554  S
N1162      H1165   1.046       .  S
N1162      H1166   1.045       .  S
C1167      C1168   1.410       .  A
C1167      C1172   1.405       .  A
C1167      H1174   1.081       .  S
C1168      C1169   1.418       .  A
C1169      C1170   1.411       .  A
C1169      N1176   1.437       .  S
C1170      C1171   1.406       .  A
C1170      H1175   1.083       .  S
C1171      C1303   1.495       .  S
C1171      C1172   1.415       .  A
C1172      N1173   1.439       .  S
N1173      H1177   1.046       .  S
N1173      H1178   1.045       .  S
N1176      H1179   1.045       .  S
N1176      H1180   1.046       .  S
C1181      C1182   1.558       .  S
C1181      C1187   1.555       .  S
C1181      C1185   1.552       .  S
C1181      C1404   1.542       .  S
C1182      H1189   1.083       .  S
C1182      C1183   1.369       .  D
C1183      C1184   1.534       .  S
C1183      C1200   1.517       .  S
C1184      C1188   1.535       .  S
C1184      C1186   1.537       .  S
C1184      H1190   1.045       .  S
C1185      H1191   1.085       .  S
C1185      C1186   1.371       .  D
C1186      C1234   1.520       .  S
C1187      H1192   1.082       .  S
C1187      C1188   1.362       .  D
C1188      C1207   1.513       .  S
C1193      C1194   1.546       .  S
C1193      C1199   1.551       .  S
C1193      C1197   1.562       .  S
C1193      C1393   1.538       .  S
C1194      H1201   1.084       .  S
C1194      C1195   1.364       .  D
C1195      C1196   1.534       .  S
C1195      C1224   1.515       .  S
C1196      C1200   1.541       .  S
C1196      C1198   1.541       .  S
C1196      H1202   1.049       .  S
C1197      H1203   1.080       .  S
C1197      C1198   1.373       .  D
C1198      C1246   1.522       .  S
C1199      H1204   1.085       .  S
C1199      C1200   1.365       .  D
C1205      C1206   1.544       .  S
C1205      C1211   1.552       .  S
C1205      C1209   1.557       .  S
C1205      C1379   1.530       .  S
C1206      H1213   1.084       .  S
C1206      C1207   1.365       .  D
C1207      C1208   1.535       .  S
C1208      C1212   1.541       .  S
C1208      C1210   1.542       .  S
C1208      H1214   1.049       .  S
C1209      H1215   1.081       .  S
C1209      C1210   1.365       .  D
C1210      C1258   1.515       .  S
C1211      H1216   1.084       .  S
C1211      C1212   1.364       .  D
C1212      C1219   1.517       .  S
C1217      C1218   1.554       .  S
C1217      C1223   1.557       .  S
C1217      C1221   1.554       .  S
C1217      C1365   1.542       .  S
C1218      H1225   1.084       .  S
C1218      C1219   1.369       .  D
C1219      C1220   1.534       .  S
C1220      C1224   1.533       .  S
C1220      C1222   1.540       .  S
C1220      H1226   1.045       .  S
C1221      H1227   1.085       .  S
C1221      C1222   1.369       .  D
C1222      C1270   1.518       .  S
C1223      H1228   1.076       .  S
C1223      C1224   1.362       .  D
C1229      C1230   1.556       .  S
C1229      C1235   1.557       .  S
C1229      C1233   1.551       .  S
C1229      C1351   1.539       .  S
C1230      H1237   1.079       .  S
C1230      C1231   1.362       .  D
C1231      C1232   1.533       .  S
C1231      C1260   1.512       .  S
C1232      C1236   1.539       .  S
C1232      C1234   1.541       .  S
C1232      H1238   1.045       .  S
C1233      H1239   1.085       .  S
C1233      C1234   1.366       .  D
C1235      H1240   1.084       .  S
C1235      C1236   1.369       .  D
C1236      C1243   1.521       .  S
C1241      C1242   1.554       .  S
C1241      C1247   1.553       .  S
C1241      C1245   1.556       .  S
C1241      C1337   1.539       .  S
C1242      H1249   1.085       .  S
C1242      C1243   1.369       .  D
C1243      C1244   1.539       .  S
C1244      C1248   1.539       .  S
C1244      C1246   1.542       .  S
C1244      H1250   1.048       .  S
C1245      H1251   1.084       .  S
C1245      C1246   1.371       .  D
C1247      H1252   1.076       .  S
C1247      C1248   1.357       .  D
C1248      C1267   1.513       .  S
C1253      C1254   1.546       .  S
C1253      C1259   1.545       .  S
C1253      C1257   1.561       .  S
C1253      C1320   1.535       .  S
C1254      H1261   1.084       .  S
C1254      C1255   1.364       .  D
C1255      C1256   1.533       .  S
C1255      C1272   1.509       .  S
C1256      C1260   1.535       .  S
C1256      C1258   1.535       .  S
C1256      H1262   1.049       .  S
C1257      H1263   1.080       .  S
C1257      C1258   1.375       .  D
C1259      H1264   1.084       .  S
C1259      C1260   1.364       .  D
C1265      C1266   1.551       .  S
C1265      C1271   1.555       .  S
C1265      C1269   1.555       .  S
C1265      C1309   1.542       .  S
C1266      H1273   1.083       .  S
C1266      C1267   1.369       .  D
C1267      C1268   1.529       .  S
C1268      C1272   1.531       .  S
C1268      C1270   1.538       .  S
C1268      H1274   1.046       .  S
C1269      H1275   1.085       .  S
C1269      C1270   1.373       .  D
C1271      H1276   1.078       .  S
C1271      C1272   1.360       .  D
O1277      V1285   1.901       .  S
O1277      C1287   1.266       .  A
O1278      C1288   1.263       .  A
O1279      C1289   1.263       .  A
O1280      V1285   1.903       .  S
O1280      C1290   1.264       .  A
O1281      V1286   1.901       .  S
O1281      C1290   1.264       .  A
O1282      C1289   1.264       .  A
O1283      C1288   1.263       .  A
O1284      V1286   1.895       .  S
O1284      C1287   1.263       .  A
V1285      V1286   2.088       .  T
C1287      C1334   1.479       .  S
C1289      C1323   1.469       .  S
O1291      V1299   1.894       .  S
O1291      C1301   1.264       .  A
O1292      V1299   1.896       .  S
O1292      C1774   1.264       .  A
O1293      V1299   1.914       .  S
O1293      C1775   1.269       .  A
O1294      V1299   1.913       .  S
O1294      C1304   1.267       .  A
O1295      V1300   1.893       .  S
O1295      C1304   1.264       .  A
O1296      V1300   1.896       .  S
O1296      C1775   1.263       .  A
O1297      V1300   1.903       .  S
O1297      C1774   1.266       .  A
O1298      V1300   1.904       .  S
O1298      C1301   1.265       .  A
V1299      V1300   2.083       .  T
C1302      O1764   1.264   1_545  A
C1302      O1769   1.265   1_545  A
C1302      C1348   1.486       .  S
C1303      O1765   1.268   1_545  A
C1303      O1768   1.264   1_545  A
C1304      C1306   1.492       .  S
C1305      C1306   1.406       .  A
C1305      C1310   1.411       .  A
C1305      H1312   1.083       .  S
C1306      C1307   1.412       .  A
C1307      C1308   1.399       .  A
C1307      N1314   1.433       .  S
C1308      C1309   1.410       .  A
C1308      H1313   1.077       .  S
C1309      C1310   1.417       .  A
C1310      N1311   1.432       .  S
N1311      H1315   1.046       .  S
N1311      H1316   1.045       .  S
N1314      H1317   1.046       .  S
N1314      H1318   1.046       .  S
C1319      C1320   1.412       .  A
C1319      C1324   1.411       .  A
C1319      H1326   1.077       .  S
C1320      C1321   1.421       .  A
C1321      C1322   1.399       .  A
C1321      N1328   1.434       .  S
C1322      C1323   1.394       .  A
C1322      H1327   1.084       .  S
C1323      C1324   1.407       .  A
C1324      N1325   1.438       .  S
N1325      H1329   1.045       .  S
N1325      H1330   1.046       .  S
N1328      H1331   1.046       .  S
N1328      H1332   1.046       .  S
C1333      C1334   1.403       .  A
C1333      C1338   1.405       .  A
C1333      H1340   1.084       .  S
C1334      C1335   1.404       .  A
C1335      C1336   1.400       .  A
C1335      N1342   1.434       .  S
C1336      C1337   1.416       .  A
C1336      H1341   1.074       .  S
C1337      C1338   1.416       .  A
C1338      N1339   1.432       .  S
N1339      H1343   1.045       .  S
N1339      H1344   1.046       .  S
N1342      H1345   1.046       .  S
N1342      H1346   1.046       .  S
C1347      C1348   1.404       .  A
C1347      C1352   1.406       .  A
C1347      H1354   1.083       .  S
C1348      C1349   1.411       .  A
C1349      C1350   1.404       .  A
C1349      N1356   1.439       .  S
C1350      C1351   1.413       .  A
C1350      H1355   1.076       .  S
C1351      C1352   1.418       .  A
C1352      N1353   1.439       .  S
N1353      H1357   1.046       .  S
N1353      H1358   1.044       .  S
N1356      H1359   1.046       .  S
N1356      H1360   1.046       .  S
C1361      C1362   1.403       .  A
C1361      C1366   1.406       .  A
C1361      H1368   1.084       .  S
C1362      C1363   1.412       .  A
C1363      C1364   1.405       .  A
C1364      C1365   1.413       .  A
C1364      H1369   1.073       .  S
C1365      C1366   1.416       .  A
C1366      N1367   1.433       .  S
N1367      H1371   1.045       .  S
N1367      H1372   1.046       .  S
N1370      H1373   1.046       .  S
N1370      H1374   1.046       .  S
C1375      C1376   1.396       .  A
C1375      C1380   1.402       .  A
C1376      C1377   1.403       .  A
C1377      C1378   1.404       .  A
C1377      N1384   1.438       .  S
C1378      C1379   1.412       .  A
C1378      H1383   1.078       .  S
C1379      C1380   1.422       .  A
C1380      N1381   1.439       .  S
N1381      H1386   1.045       .  S
N1384      H1387   1.045       .  S
N1384      H1388   1.046       .  S
C1389      C1390   1.395       .  A
C1389      C1394   1.400       .  A
C1390      C1391   1.407       .  A
C1391      C1392   1.412       .  A
C1391      N1398   1.437       .  S
C1392      C1393   1.413       .  A
C1392      H1397   1.077       .  S
C1393      C1394   1.420       .  A
C1394      N1395   1.434       .  S
N1395      H1399   1.046       .  S
N1395      H1400   1.046       .  S
N1398      H1401   1.046       .  S
N1398      H1402   1.045       .  S
C1403      C1404   1.411       .  A
C1403      C1408   1.405       .  A
C1403      H1410   1.081       .  S
C1404      C1405   1.418       .  A
C1405      C1406   1.409       .  A
C1405      N1412   1.437       .  S
C1406      C1407   1.405       .  A
C1406      H1411   1.083       .  S
C1407      C1408   1.415       .  A
C1408      N1409   1.439       .  S
N1409      H1413   1.046       .  S
N1409      H1414   1.045       .  S
N1412      H1415   1.045       .  S
N1412      H1416   1.046       .  S
C1417      C1418   1.557       .  S
C1417      C1423   1.556       .  S
C1417      C1421   1.553       .  S
C1417      C1640   1.544       .  S
C1418      H1425   1.082       .  S
C1418      C1419   1.370       .  D
C1419      C1420   1.534       .  S
C1419      C1436   1.517       .  S
C1420      C1424   1.536       .  S
C1420      C1422   1.538       .  S
C1420      H1426   1.045       .  S
C1421      H1427   1.085       .  S
C1421      C1422   1.372       .  D
C1422      C1470   1.522       .  S
C1423      H1428   1.082       .  S
C1423      C1424   1.362       .  D
C1424      C1443   1.515       .  S
C1429      C1430   1.546       .  S
C1429      C1435   1.549       .  S
C1429      C1433   1.563       .  S
C1429      C1629   1.537       .  S
C1430      H1437   1.084       .  S
C1430      C1431   1.364       .  D
C1431      C1432   1.534       .  S
C1431      C1460   1.514       .  S
C1432      C1436   1.540       .  S
C1432      C1434   1.540       .  S
C1432      H1438   1.048       .  S
C1433      H1439   1.080       .  S
C1433      C1434   1.375       .  D
C1434      C1482   1.522       .  S
C1435      H1440   1.085       .  S
C1435      C1436   1.363       .  D
C1441      C1442   1.546       .  S
C1441      C1447   1.551       .  S
C1441      C1445   1.557       .  S
C1441      C1615   1.531       .  S
C1442      H1449   1.084       .  S
C1442      C1443   1.366       .  D
C1443      C1444   1.535       .  S
C1444      C1448   1.540       .  S
C1444      C1446   1.542       .  S
C1444      H1450   1.048       .  S
C1445      H1451   1.082       .  S
C1445      C1446   1.366       .  D
C1446      C1494   1.516       .  S
C1447      H1452   1.083       .  S
C1447      C1448   1.363       .  D
C1448      C1455   1.514       .  S
C1453      C1454   1.551       .  S
C1453      C1459   1.558       .  S
C1453      C1457   1.553       .  S
C1453      C1601   1.538       .  S
C1454      H1461   1.084       .  S
C1454      C1455   1.367       .  D
C1455      C1456   1.532       .  S
C1456      C1460   1.532       .  S
C1456      C1458   1.539       .  S
C1456      H1462   1.045       .  S
C1457      H1463   1.085       .  S
C1457      C1458   1.369       .  D
C1458      C1506   1.515       .  S
C1459      H1464   1.075       .  S
C1459      C1460   1.361       .  D
C1465      C1466   1.554       .  S
C1465      C1471   1.559       .  S
C1465      C1469   1.552       .  S
C1465      C1587   1.541       .  S
C1466      H1473   1.080       .  S
C1466      C1467   1.361       .  D
C1467      C1468   1.533       .  S
C1467      C1496   1.510       .  S
C1468      C1472   1.539       .  S
C1468      C1470   1.541       .  S
C1468      H1474   1.045       .  S
C1469      H1475   1.085       .  S
C1469      C1470   1.368       .  D
C1471      H1476   1.084       .  S
C1471      C1472   1.370       .  D
C1472      C1479   1.522       .  S
C1477      C1478   1.556       .  S
C1477      C1483   1.555       .  S
C1477      C1481   1.553       .  S
C1477      C1573   1.538       .  S
C1478      H1485   1.085       .  S
C1478      C1479   1.369       .  D
C1479      C1480   1.541       .  S
C1480      C1484   1.539       .  S
C1480      C1482   1.542       .  S
C1480      H1486   1.048       .  S
C1481      H1487   1.085       .  S
C1481      C1482   1.368       .  D
C1483      H1488   1.075       .  S
C1483      C1484   1.358       .  D
C1484      C1503   1.514       .  S
C1489      C1490   1.545       .  S
C1489      C1495   1.544       .  S
C1489      C1493   1.561       .  S
C1489      C1556   1.534       .  S
C1490      H1497   1.084       .  S
C1490      C1491   1.364       .  D
C1491      C1492   1.532       .  S
C1491      C1508   1.508       .  S
C1492      C1496   1.533       .  S
C1492      C1494   1.536       .  S
C1492      H1498   1.049       .  S
C1493      H1499   1.080       .  S
C1493      C1494   1.375       .  D
C1495      H1500   1.084       .  S
C1495      C1496   1.363       .  D
C1501      C1502   1.552       .  S
C1501      C1507   1.555       .  S
C1501      C1505   1.551       .  S
C1501      C1545   1.538       .  S
C1502      H1509   1.083       .  S
C1502      C1503   1.370       .  D
C1503      C1504   1.530       .  S
C1504      C1508   1.531       .  S
C1504      C1506   1.538       .  S
C1504      H1510   1.045       .  S
C1505      H1511   1.085       .  S
C1505      C1506   1.370       .  D
C1507      H1512   1.079       .  S
C1507      C1508   1.359       .  D
O1513      V1521   1.897       .  S
O1513      C1523   1.265       .  A
O1514      C1524   1.263       .  A
O1515      C1525   1.263       .  A
O1516      V1521   1.904       .  S
O1516      C1526   1.264       .  A
O1517      V1522   1.901       .  S
O1517      C1526   1.264       .  A
O1518      C1525   1.263       .  A
O1519      C1524   1.262       .  A
O1520      V1522   1.896       .  S
O1520      C1523   1.264       .  A
V1521      V1522   2.089       .  T
C1523      C1570   1.480       .  S
C1524      C1848   1.464   1_554  S
C1525      C1559   1.467       .  S
C1526      C1862   1.472   1_554  S
O1527      V1535   1.892       .  S
O1527      C1537   1.263       .  A
O1528      V1535   1.895       .  S
O1529      V1535   1.908       .  S
O1530      V1535   1.909       .  S
O1530      C1540   1.267       .  A
O1531      V1536   1.890       .  S
O1531      C1540   1.263       .  A
O1532      V1536   1.894       .  S
O1533      V1536   1.904       .  S
O1534      V1536   1.906       .  S
O1534      C1537   1.266       .  A
V1535      V1536   2.083       .  T
C1537      C1834   1.482   1_554  S
C1538      C1584   1.491       .  S
C1539      C1879   1.495   1_554  S
C1540      C1542   1.490       .  S
C1541      C1542   1.407       .  A
C1541      C1546   1.408       .  A
C1541      H1548   1.083       .  S
C1542      C1543   1.415       .  A
C1543      C1544   1.401       .  A
C1543      N1550   1.439       .  S
C1544      C1545   1.409       .  A
C1544      H1549   1.077       .  S
C1545      C1546   1.415       .  A
C1546      N1547   1.432       .  S
N1547      H1551   1.046       .  S
N1547      H1552   1.045       .  S
N1550      H1553   1.046       .  S
N1550      H1554   1.046       .  S
C1555      C1556   1.412       .  A
C1555      C1560   1.411       .  A
C1555      H1562   1.077       .  S
C1556      C1557   1.421       .  A
C1557      C1558   1.398       .  A
C1557      N1564   1.434       .  S
C1558      C1559   1.393       .  A
C1558      H1563   1.084       .  S
C1559      C1560   1.406       .  A
C1560      N1561   1.438       .  S
N1561      H1565   1.045       .  S
N1561      H1566   1.046       .  S
N1564      H1567   1.046       .  S
N1564      H1568   1.046       .  S
C1569      C1570   1.403       .  A
C1569      C1574   1.404       .  A
C1569      H1576   1.084       .  S
C1570      C1571   1.406       .  A
C1571      C1572   1.399       .  A
C1571      N1578   1.434       .  S
C1572      C1573   1.414       .  A
C1572      H1577   1.073       .  S
C1573      C1574   1.416       .  A
C1574      N1575   1.433       .  S
N1575      H1579   1.046       .  S
N1575      H1580   1.046       .  S
N1578      H1581   1.046       .  S
N1578      H1582   1.046       .  S
C1583      C1584   1.406       .  A
C1583      C1588   1.407       .  A
C1583      H1590   1.083       .  S
C1584      C1585   1.412       .  A
C1585      C1586   1.406       .  A
C1585      N1592   1.439       .  S
C1586      C1587   1.414       .  A
C1586      H1591   1.077       .  S
C1587      C1588   1.417       .  A
C1588      N1589   1.438       .  S
N1589      H1593   1.046       .  S
N1589      H1594   1.045       .  S
N1592      H1595   1.046       .  S
N1592      H1596   1.046       .  S
C1597      C1598   1.402       .  A
C1597      C1602   1.404       .  A
C1597      H1604   1.084       .  S
C1598      C1773   1.480       .  S
C1598      C1599   1.409       .  A
C1599      C1600   1.402       .  A
C1599      N1842   1.440       .  S
C1600      C1601   1.412       .  A
C1600      H1605   1.072       .  S
C1601      C1602   1.417       .  A
C1602      N1603   1.433       .  S
N1603      H1607   1.045       .  S
N1603      H1608   1.046       .  S
N1606      C1835   1.440   1_554  S
N1606      H1609   1.046       .  S
N1606      H1610   1.046       .  S
C1611      C1612   1.396       .  A
C1611      C1616   1.403       .  A
C1611      H1854   1.084       .  S
C1612      C1760   1.466       .  S
C1612      C1613   1.404       .  A
C1613      C1614   1.405       .  A
C1613      N1620   1.438       .  S
C1614      C1615   1.412       .  A
C1614      H1619   1.080       .  S
C1615      C1616   1.422       .  A
C1616      N1617   1.439       .  S
N1617      H1857   1.046       .  S
N1617      H1622   1.045       .  S
H1618      C1847   1.084   1_554  S
N1620      H1623   1.045       .  S
N1620      H1624   1.046       .  S
H1621      N1853   1.046   1_554  S
C1625      C1626   1.394       .  A
C1625      C1630   1.399       .  A
C1625      H1868   1.085       .  S
C1626      C1762   1.471       .  S
C1626      C1627   1.408       .  A
C1627      C1628   1.413       .  A
C1627      N1634   1.437       .  S
C1628      C1629   1.413       .  A
C1628      H1633   1.077       .  S
C1629      C1630   1.421       .  A
C1630      N1631   1.434       .  S
N1631      H1635   1.046       .  S
N1631      H1636   1.046       .  S
H1632      C1861   1.085   1_554  S
N1634      H1637   1.046       .  S
N1634      H1638   1.045       .  S
C1639      C1640   1.410       .  A
C1639      C1644   1.406       .  A
C1639      H1646   1.081       .  S
C1640      C1641   1.419       .  A
C1641      C1642   1.412       .  A
C1641      N1648   1.437       .  S
C1642      C1643   1.407       .  A
C1642      H1647   1.083       .  S
C1643      C1775   1.497       .  S
C1643      C1644   1.416       .  A
C1644      N1645   1.439       .  S
N1645      H1649   1.046       .  S
N1645      H1650   1.046       .  S
N1648      H1651   1.046       .  S
N1648      H1652   1.045       .  S
C1653      C1654   1.559       .  S
C1653      C1659   1.554       .  S
C1653      C1657   1.553       .  S
C1653      C1876   1.543       .  S
C1654      H1661   1.083       .  S
C1654      C1655   1.371       .  D
C1655      C1656   1.534       .  S
C1655      C1672   1.518       .  S
C1656      C1660   1.535       .  S
C1656      C1658   1.537       .  S
C1656      H1662   1.045       .  S
C1657      H1663   1.085       .  S
C1657      C1658   1.371       .  D
C1658      C1706   1.521       .  S
C1659      H1664   1.083       .  S
C1659      C1660   1.361       .  D
C1660      C1679   1.513       .  S
C1665      C1666   1.547       .  S
C1665      C1671   1.550       .  S
C1665      C1669   1.563       .  S
C1665      C1865   1.538       .  S
C1666      H1673   1.084       .  S
C1666      C1667   1.364       .  D
C1667      C1668   1.535       .  S
C1667      C1696   1.515       .  S
C1668      C1672   1.543       .  S
C1668      C1670   1.540       .  S
C1668      H1674   1.049       .  S
C1669      H1675   1.080       .  S
C1669      C1670   1.374       .  D
C1670      C1718   1.522       .  S
C1671      H1676   1.085       .  S
C1671      C1672   1.364       .  D
C1677      C1678   1.545       .  S
C1677      C1683   1.551       .  S
C1677      C1681   1.557       .  S
C1677      C1851   1.531       .  S
C1678      H1685   1.084       .  S
C1678      C1679   1.366       .  D
C1679      C1680   1.534       .  S
C1680      C1684   1.539       .  S
C1680      C1682   1.541       .  S
C1680      H1686   1.049       .  S
C1681      H1687   1.081       .  S
C1681      C1682   1.366       .  D
C1682      C1730   1.515       .  S
C1683      H1688   1.084       .  S
C1683      C1684   1.363       .  D
C1684      C1691   1.514       .  S
C1689      C1690   1.551       .  S
C1689      C1695   1.558       .  S
C1689      C1693   1.555       .  S
C1689      C1837   1.540       .  S
C1690      H1697   1.084       .  S
C1690      C1691   1.367       .  D
C1691      C1692   1.533       .  S
C1692      C1696   1.533       .  S
C1692      C1694   1.541       .  S
C1692      H1698   1.046       .  S
C1693      H1699   1.085       .  S
C1693      C1694   1.370       .  D
C1694      C1742   1.518       .  S
C1695      H1700   1.075       .  S
C1695      C1696   1.362       .  D
C1701      C1702   1.554       .  S
C1701      C1707   1.558       .  S
C1701      C1705   1.551       .  S
C1701      C1823   1.539       .  S
C1702      H1709   1.080       .  S
C1702      C1703   1.362       .  D
C1703      C1704   1.534       .  S
C1703      C1732   1.511       .  S
C1704      C1708   1.540       .  S
C1704      C1706   1.541       .  S
C1704      H1710   1.045       .  S
C1705      H1711   1.085       .  S
C1705      C1706   1.367       .  D
C1707      H1712   1.084       .  S
C1707      C1708   1.370       .  D
C1708      C1715   1.522       .  S
C1713      C1714   1.555       .  S
C1713      C1719   1.554       .  S
C1713      C1717   1.555       .  S
C1713      C1809   1.540       .  S
C1714      H1721   1.085       .  S
C1714      C1715   1.369       .  D
C1715      C1716   1.539       .  S
C1716      C1720   1.540       .  S
C1716      C1718   1.542       .  S
C1716      H1722   1.048       .  S
C1717      H1723   1.084       .  S
C1717      C1718   1.370       .  D
C1719      H1724   1.075       .  S
C1719      C1720   1.358       .  D
C1720      C1739   1.515       .  S
C1725      C1726   1.545       .  S
C1725      C1731   1.545       .  S
C1725      C1729   1.561       .  S
C1725      C1792   1.534       .  S
C1726      H1733   1.084       .  S
C1726      C1727   1.363       .  D
C1727      C1728   1.533       .  S
C1727      C1744   1.509       .  S
C1728      C1732   1.534       .  S
C1728      C1730   1.536       .  S
C1728      H1734   1.049       .  S
C1729      H1735   1.080       .  S
C1729      C1730   1.374       .  D
C1731      H1736   1.084       .  S
C1731      C1732   1.364       .  D
C1737      C1738   1.552       .  S
C1737      C1743   1.555       .  S
C1737      C1741   1.555       .  S
C1737      C1781   1.542       .  S
C1738      H1745   1.083       .  S
C1738      C1739   1.370       .  D
C1739      C1740   1.530       .  S
C1740      C1744   1.531       .  S
C1740      C1742   1.537       .  S
C1740      H1746   1.045       .  S
C1741      H1747   1.085       .  S
C1741      C1742   1.373       .  D
C1743      H1748   1.078       .  S
C1743      C1744   1.360       .  D
O1749      V1757   1.900       .  S
O1749      C1759   1.266       .  A
O1750      C1760   1.263       .  A
O1751      C1761   1.263       .  A
O1752      V1757   1.903       .  S
O1752      C1762   1.264       .  A
O1753      V1758   1.902       .  S
O1753      C1762   1.264       .  A
O1754      C1761   1.264       .  A
O1755      C1760   1.263       .  A
O1756      V1758   1.896       .  S
O1756      C1759   1.263       .  A
V1757      V1758   2.089       .  T
C1759      C1806   1.479       .  S
C1761      C1795   1.468       .  S
O1763      V1771   1.891       .  S
O1763      C1773   1.263       .  A
O1764      V1771   1.895       .  S
O1765      V1771   1.910       .  S
O1766      V1771   1.912       .  S
O1766      C1776   1.267       .  A
O1767      V1772   1.895       .  S
O1767      C1776   1.264       .  A
O1768      V1772   1.896       .  S
O1769      V1772   1.900       .  S
O1770      V1772   1.902       .  S
O1770      C1773   1.265       .  A
V1771      V1772   2.083       .  T
C1774      C1820   1.490       .  S
C1776      C1778   1.493       .  S
C1777      C1778   1.407       .  A
C1777      C1782   1.411       .  A
C1777      H1784   1.083       .  S
C1778      C1779   1.412       .  A
C1779      C1780   1.400       .  A
C1779      N1786   1.433       .  S
C1780      C1781   1.410       .  A
C1780      H1785   1.077       .  S
C1781      C1782   1.416       .  A
C1782      N1783   1.432       .  S
N1783      H1787   1.046       .  S
N1783      H1788   1.045       .  S
N1786      H1789   1.046       .  S
N1786      H1790   1.046       .  S
C1791      C1792   1.412       .  A
C1791      C1796   1.411       .  A
C1791      H1798   1.077       .  S
C1792      C1793   1.421       .  A
C1793      C1794   1.398       .  A
C1793      N1800   1.434       .  S
C1794      C1795   1.394       .  A
C1794      H1799   1.084       .  S
C1795      C1796   1.406       .  A
C1796      N1797   1.438       .  S
N1797      H1801   1.045       .  S
N1797      H1802   1.046       .  S
N1800      H1803   1.046       .  S
N1800      H1804   1.046       .  S
C1805      C1806   1.403       .  A
C1805      C1810   1.405       .  A
C1805      H1812   1.084       .  S
C1806      C1807   1.404       .  A
C1807      C1808   1.400       .  A
C1807      N1814   1.434       .  S
C1808      C1809   1.415       .  A
C1808      H1813   1.073       .  S
C1809      C1810   1.416       .  A
C1810      N1811   1.433       .  S
N1811      H1815   1.045       .  S
N1811      H1816   1.046       .  S
N1814      H1817   1.046       .  S
N1814      H1818   1.046       .  S
C1819      C1820   1.406       .  A
C1819      C1824   1.407       .  A
C1819      H1826   1.083       .  S
C1820      C1821   1.412       .  A
C1821      C1822   1.405       .  A
C1821      N1828   1.439       .  S
C1822      C1823   1.413       .  A
C1822      H1827   1.078       .  S
C1823      C1824   1.417       .  A
C1824      N1825   1.438       .  S
N1825      H1829   1.046       .  S
N1825      H1830   1.045       .  S
N1828      H1831   1.046       .  S
N1828      H1832   1.046       .  S
C1833      C1834   1.402       .  A
C1833      C1838   1.405       .  A
C1833      H1840   1.084       .  S
C1834      C1835   1.410       .  A
C1835      C1836   1.403       .  A
C1836      C1837   1.413       .  A
C1836      H1841   1.072       .  S
C1837      C1838   1.417       .  A
C1838      N1839   1.433       .  S
N1839      H1843   1.045       .  S
N1839      H1844   1.046       .  S
N1842      H1845   1.046       .  S
N1842      H1846   1.046       .  S
C1847      C1848   1.396       .  A
C1847      C1852   1.402       .  A
C1848      C1849   1.403       .  A
C1849      C1850   1.404       .  A
C1849      N1856   1.438       .  S
C1850      C1851   1.412       .  A
C1850      H1855   1.079       .  S
C1851      C1852   1.422       .  A
C1852      N1853   1.439       .  S
N1853      H1858   1.045       .  S
N1856      H1859   1.045       .  S
N1856      H1860   1.045       .  S
C1861      C1862   1.394       .  A
C1861      C1866   1.400       .  A
C1862      C1863   1.407       .  A
C1863      C1864   1.412       .  A
C1863      N1870   1.437       .  S
C1864      C1865   1.413       .  A
C1864      H1869   1.077       .  S
C1865      C1866   1.421       .  A
C1866      N1867   1.434       .  S
N1867      H1871   1.046       .  S
N1867      H1872   1.046       .  S
N1870      H1873   1.046       .  S
N1870      H1874   1.045       .  S
C1875      C1876   1.411       .  A
C1875      C1880   1.405       .  A
C1875      H1882   1.081       .  S
C1876      C1877   1.418       .  A
C1877      C1878   1.411       .  A
C1877      N1884   1.437       .  S
C1878      C1879   1.406       .  A
C1878      H1883   1.083       .  S
C1879      C1880   1.416       .  A
C1880      N1881   1.439       .  S
N1881      H1885   1.045       .  S
N1881      H1886   1.046       .  S
N1884      H1887   1.045       .  S
N1884      H1888   1.046       .  S
