geometry optimzed in LAMMPS
_audit_creation_date              2020-11-30 
_audit_creation_method            'lammps2cif' 
_symmetry_space_group_name_H-M    'P1' 
_symmetry_Int_Tables_number       1 
_symmetry_cell_setting            triclinic 
loop_ 
_symmetry_equiv_pos_as_xyz 
  x,y,z 
_cell_length_a                    24.23832629 
_cell_length_b                    24.17205757598087 
_cell_length_c                    38.15467187109072 
_cell_angle_alpha                 89.94016515078785 
_cell_angle_beta                  89.65740921332687 
_cell_angle_gamma                 90.26223090440165 
loop_ 
_atom_site_label 
_atom_site_type_symbol 
_atom_site_fract_x 
_atom_site_fract_y 
_atom_site_fract_z 
_atom_site_charge 
C1          C  0.48898034  0.22478418  0.39631561     0.85900
C2          C  0.43715773  0.26066605  0.39499236    -0.54400
C3          C  0.44047328  0.30344266  0.37188843     0.08800
C4          C  0.49595016  0.30638889  0.35217746     0.19700
C5          C  0.49838518  0.20613891  0.35820132    -0.55100
C6          C  0.50197056  0.24923240  0.33499901     0.08900
C7          C  0.53627215  0.26563289  0.40423912    -0.54600
C8          C  0.54071102  0.30866262  0.38089419     0.09500
H9          H  0.40117688  0.25335214  0.41148596     0.14000
H10         H  0.49731029  0.34003059  0.33256958    -0.00300
H11         H  0.50068480  0.16307058  0.35029383     0.14300
H12         H  0.56291453  0.26089362  0.42676238     0.14100
C13         C  0.18398655  0.51178030  0.38473623     0.85900
C14         C  0.22287227  0.56088900  0.39249141    -0.54400
C15         C  0.26685094  0.56545497  0.36986590     0.08800
C16         C  0.26808838  0.51880029  0.34239796     0.19700
C17         C  0.16761579  0.51869743  0.34599211    -0.55100
C18         C  0.21216247  0.52275634  0.32378341     0.08900
C19         C  0.22147515  0.46094841  0.38526973    -0.54600
C20         C  0.26576686  0.46446240  0.36334524     0.09500
H21         H  0.21584242  0.58916936  0.41409268     0.14000
H22         H  0.30311746  0.52015730  0.32374265    -0.00300
H23         H  0.12519611  0.52094665  0.33715517     0.14300
H24         H  0.21477457  0.42606069  0.40277312     0.14100
C25         C  0.78784446  0.53901876  0.40481079     0.85900
C26         C  0.74863307  0.48936247  0.41079428    -0.54400
C27         C  0.70641828  0.48563503  0.38697071     0.08800
C28         C  0.70773851  0.53340582  0.35998944     0.19700
C29         C  0.80751746  0.53359364  0.36656701    -0.55100
C30         C  0.76544428  0.53024885  0.34289839     0.08900
C31         C  0.75003563  0.58977821  0.40507391    -0.54600
C32         C  0.70761429  0.58684832  0.38191470     0.09500
H33         H  0.75422209  0.46035619  0.43215743     0.14000
H34         H  0.67465871  0.53330073  0.34025980    -0.00300
H35         H  0.85075362  0.53138815  0.35913733     0.14300
H36         H  0.75509281  0.62409434  0.42314453     0.14100
C37         C  0.47659717  0.82797761  0.39441714     0.85900
C38         C  0.52724167  0.79138345  0.40069694    -0.54400
C39         C  0.53140761  0.74803253  0.37803971     0.08800
C40         C  0.48389076  0.74485791  0.35151925     0.19700
C41         C  0.48054171  0.84534869  0.35565362    -0.55100
C42         C  0.48387119  0.80155322  0.33300487     0.08900
C43         C  0.42725635  0.78788134  0.39627095    -0.54600
C44         C  0.43046459  0.74378887  0.37385226     0.09500
H45         H  0.55685593  0.79874608  0.42144262     0.14000
H46         H  0.48904894  0.71037732  0.33282271    -0.00300
H47         H  0.47945211  0.88812955  0.34700629     0.14300
H48         H  0.39372281  0.79370472  0.41479219     0.14100
C49         C  0.49979020  0.22245589  0.12285284     0.85900
C50         C  0.54904587  0.26226805  0.11958667    -0.54400
C51         C  0.54772560  0.30637570  0.14204037     0.08800
C52         C  0.49534224  0.30692708  0.16507724     0.19700
C53         C  0.49774228  0.20646249  0.16179161    -0.55100
C54         C  0.49587302  0.25067478  0.18396836     0.08900
C55         C  0.44880855  0.25962397  0.11719390    -0.54600
C56         C  0.44663065  0.30433780  0.13918389     0.09500
H57         H  0.58212933  0.25527019  0.10086924     0.14000
H58         H  0.49236876  0.34173789  0.18377719    -0.00300
H59         H  0.50049442  0.16402785  0.17098457     0.14300
H60         H  0.41868832  0.25351363  0.09669658     0.14100
C61         C  0.20729120  0.53673763  0.11099693     0.85900
C62         C  0.24292326  0.48445418  0.10751406    -0.54400
C63         C  0.28459200  0.48140042  0.13145980     0.08800
C64         C  0.28628342  0.53144228  0.15663178     0.19700
C65         C  0.18673753  0.53666907  0.14912739    -0.55100
C66         C  0.22810824  0.53407648  0.17313653     0.08900
C67         C  0.24851179  0.58501468  0.10872631    -0.54600
C68         C  0.29030038  0.58300941  0.13268752     0.09500
H69         H  0.23628088  0.45331687  0.08747018     0.14000
H70         H  0.31874847  0.52795764  0.17674801    -0.00300
H71         H  0.14346638  0.53958918  0.15641580     0.14300
H72         H  0.24500885  0.61711287  0.08901720     0.14100
C73         C  0.81179413  0.51462756  0.13062584     0.85900
C74         C  0.77817611  0.56830022  0.12546517    -0.54400
C75         C  0.73264470  0.57179089  0.14667243     0.08800
C76         C  0.72522189  0.52167278  0.17121171     0.19700
C77         C  0.82527134  0.51342636  0.17007079    -0.55100
C78         C  0.77974303  0.51702652  0.19141235     0.08900
C79         C  0.76947088  0.46797449  0.12561963    -0.54600
C80         C  0.72419240  0.47064341  0.14710500     0.09500
H81         H  0.78738695  0.59988731  0.10613996     0.14000
H82         H  0.68917810  0.52599671  0.18887579    -0.00300
H83         H  0.86684166  0.50888221  0.18007837     0.14300
H84         H  0.77549835  0.43573404  0.10623936     0.14100
C85         C  0.52195435  0.82926325  0.12086923     0.85900
C86         C  0.47399750  0.78921571  0.11301275    -0.54400
C87         C  0.46947360  0.74562240  0.13589988     0.08800
C88         C  0.51545106  0.74561308  0.16367200     0.19700
C89         C  0.51376497  0.84619039  0.15943709    -0.55100
C90         C  0.51006365  0.80216299  0.18198496     0.05900
C91         C  0.57356717  0.79250048  0.12082566    -0.54600
C92         C  0.57019307  0.74811555  0.14285671     0.09500
H93         H  0.44615359  0.79548787  0.09124002     0.14000
H94         H  0.51410852  0.71082658  0.18249172    -0.00300
H95         H  0.50995347  0.88888063  0.16789133     0.14300
H96         H  0.60867356  0.79958318  0.10355464     0.14100
O97         O  0.94974522  0.56653923  0.04139196    -0.73600
O98         O  0.04359469  0.58185625  0.46554981    -0.74600
O99         O  0.92874896  0.56045620  0.47388317    -0.63200
O100        O  0.06664989  0.55050745  0.03914383    -0.71600
O101        O  0.05223384  0.46079534  0.04792537    -0.71100
O102        O  0.94405286  0.47006232  0.47301270    -0.62400
O103        O  0.05858641  0.49141126  0.46489744    -0.74900
O104        O  0.93615632  0.47650401  0.04906229    -0.73700
Cu105      Cu  0.00529521  0.55453493  0.00308769     1.04600
Cu106      Cu  0.99376451  0.45795007  0.01156997     1.04300
C107        C  0.92507346  0.52680814  0.05705057     0.92600
C108        C  0.06707564  0.53965282  0.45208341     0.91800
C109        C  0.91642657  0.51198454  0.46288060     0.83900
C110        C  0.07842680  0.50518020  0.05485373     0.90200
O111        O  0.53318818  0.08936002  0.04710679    -0.73600
O112        O  0.55127697  0.96614527  0.47300483    -0.74600
O113        O  0.55705515  0.08242797  0.47514396    -0.63200
O114        O  0.53772624  0.97112254  0.05044516    -0.71600
O115        O  0.44772426  0.96768719  0.04043304    -0.71100
O116        O  0.46642449  0.08659079  0.46765565    -0.62400
O117        O  0.46057672  0.96917299  0.46556439    -0.74900
O118        O  0.44369910  0.08528827  0.03538931    -0.73700
Cu119      Cu  0.55026121  0.02742202  0.01254640     1.04600
Cu120      Cu  0.45423945  0.02413760  0.00098588     1.04300
C121        C  0.48384888  0.10690366  0.05193896     0.92600
C122        C  0.50789573  0.94990649  0.45714234     0.91800
C123        C  0.51525377  0.10302042  0.45983725     0.83900
C124        C  0.49000836  0.95127831  0.05746033     0.90200
C125        C  0.48384835  0.90843559  0.08510934    -0.17100
C126        C  0.52694287  0.87720910  0.09523443    -0.32200
H127        H  0.44296366  0.90001051  0.09568387     0.12000
H128        H  0.56692746  0.88436911  0.08295478     0.12500
C129        C  0.88209585  0.54091090  0.08337007    -0.17100
C130        C  0.86179324  0.50456062  0.10692557    -0.32200
H131        H  0.86703415  0.58294681  0.08273918     0.12000
H132        H  0.88046338  0.46382085  0.10838969     0.12500
C133        C  0.63547268  0.60602935  0.14766463    -0.14000
C134        C  0.69203110  0.61783249  0.14508390     0.08200
C135        C  0.70881187  0.67330700  0.14126070    -0.14000
C136        C  0.66957516  0.71595246  0.14075223    -0.14000
C137        C  0.61287442  0.70384023  0.14402084     0.08200
C138        C  0.59653908  0.64833858  0.14715324    -0.14000
H139        H  0.62101230  0.56384308  0.14920780     0.12200
H140        H  0.75220857  0.68372820  0.13925023     0.12200
H141        H  0.68359269  0.75836491  0.13822372     0.12200
H142        H  0.55347653  0.63720651  0.14817380     0.12200
C143        C  0.16161167  0.54144404  0.08431939    -0.17100
C144        C  0.12244925  0.50247714  0.08131410    -0.32200
H145        H  0.16091074  0.57714359  0.06698684     0.12000
H146        H  0.12418095  0.46599582  0.09794763     0.12500
C147        C  0.32927749  0.67831889  0.11904736    -0.14000
C148        C  0.33530149  0.62573292  0.13454831     0.08200
C149        C  0.38521502  0.61423356  0.15152896    -0.14000
C150        C  0.42826416  0.65271142  0.15184586    -0.14000
C151        C  0.42314823  0.70437853  0.13528883     0.08200
C152        C  0.37249705  0.71691728  0.11935220    -0.14000
H153        H  0.29099993  0.69050044  0.10696422     0.12200
H154        H  0.39219800  0.57538859  0.16449624     0.12200
H155        H  0.46547916  0.64088512  0.16505881     0.12200
H156        H  0.36543657  0.75695914  0.10759353     0.12200
C157        C  0.50838829  0.17252035  0.09924328    -0.17100
C158        C  0.47170714  0.15333056  0.07596806    -0.32200
H159        H  0.54765508  0.15132138  0.10165516     0.12000
H160        H  0.43096603  0.17125774  0.07435365     0.12500
C161        C  0.34908724  0.33737289  0.12765700    -0.14000
C162        C  0.40427936  0.34894666  0.13646064     0.08200
C163        C  0.41946213  0.40422489  0.14237712    -0.14000
C164        C  0.38071611  0.44665382  0.14050656    -0.14000
C165        C  0.32543813  0.43533434  0.13252661     0.08200
C166        C  0.31006013  0.38015261  0.12569077    -0.14000
H167        H  0.33587465  0.29521838  0.12290423     0.12200
H168        H  0.46169431  0.41517962  0.14768983     0.12200
H169        H  0.39457596  0.48856489  0.14456240     0.12200
H170        H  0.26769518  0.36993257  0.11949917     0.12200
C171        C  0.62708775  0.43918236  0.16130091    -0.14000
C172        C  0.67960067  0.42770422  0.14740070     0.08200
C173        C  0.68922936  0.37440941  0.13394570    -0.14000
C174        C  0.64693376  0.33513975  0.13262767    -0.14000
C175        C  0.59353933  0.34773872  0.14477971     0.08200
C176        C  0.58484038  0.39987849  0.16004731    -0.14000
H177        H  0.61748643  0.47862416  0.17283638     0.12200
H178        H  0.72961342  0.36223491  0.12470714     0.12200
H179        H  0.65683332  0.29465821  0.12244980     0.12200
H180        H  0.54545018  0.41148404  0.17081002     0.12200
C181        C  0.51703587  0.84856198  0.27739707    -0.14000
C182        C  0.48612757  0.80666774  0.29411501     0.08200
C183        C  0.45935642  0.76692148  0.27339526    -0.14000
C184        C  0.46568844  0.76705575  0.23702721    -0.14000
C185        C  0.49904079  0.80689897  0.22032617     0.08200
C186        C  0.52343577  0.84868349  0.24075912    -0.14000
H187        H  0.53813373  0.87975247  0.29270631     0.12200
H188        H  0.43375878  0.73518126  0.28534038     0.12200
H189        H  0.44471408  0.73545013  0.22198013     0.12200
H190        H  0.54929442  0.87998550  0.22859889     0.12200
C191        C  0.51308982  0.90834081  0.42899974    -0.17100
C192        C  0.47071121  0.87531533  0.42012209    -0.32200
H193        H  0.55339204  0.90208221  0.41708185     0.12000
H194        H  0.43146690  0.88017125  0.43369327     0.12500
C195        C  0.73432710  0.49214337  0.28523317    -0.14000
C196        C  0.77348144  0.52239377  0.30441154     0.08200
C197        C  0.81839627  0.54636214  0.28630148    -0.14000
C198        C  0.82214892  0.54274246  0.24960936    -0.14000
C199        C  0.78097804  0.51524319  0.23043344     0.08200
C200        C  0.73797624  0.48870782  0.24878894    -0.14000
H201        H  0.70044370  0.47117885  0.29832967     0.12200
H202        H  0.84936186  0.56983423  0.30028621     0.12200
H203        H  0.85579962  0.56355256  0.23616669     0.12200
H204        H  0.70661765  0.46553951  0.23492251     0.12200
C205        C  0.83410565  0.54454295  0.43118966    -0.17100
C206        C  0.87046947  0.50407123  0.43786963    -0.32200
H207        H  0.83787251  0.58341192  0.44529406     0.12000
H208        H  0.86622196  0.46438030  0.42480634     0.12500
C209        C  0.60809870  0.61217800  0.37593948    -0.14000
C210        C  0.66309472  0.62895575  0.38039548     0.08200
C211        C  0.67462630  0.68563025  0.38465852    -0.14000
C212        C  0.63191485  0.72451377  0.38411737    -0.14000
C213        C  0.57701730  0.70739134  0.37915681     0.08200
C214        C  0.56561466  0.65090213  0.37518021    -0.14000
H215        H  0.59750062  0.56896407  0.37406692     0.12200
H216        H  0.71665192  0.69989500  0.38810301     0.12200
H217        H  0.64182569  0.76798466  0.38706948     0.12200
H218        H  0.52363468  0.63642868  0.37237633     0.12200
C219        C  0.17173616  0.50221923  0.26431287    -0.14000
C220        C  0.20936253  0.53140233  0.28528994     0.08200
C221        C  0.24918482  0.56530239  0.26899087    -0.14000
C222        C  0.25402569  0.56705832  0.23260320    -0.14000
C223        C  0.21862096  0.53561917  0.21157094     0.08200
C224        C  0.17624127  0.50446583  0.22762004    -0.14000
H225        H  0.14078190  0.47565835  0.27622161     0.12200
H226        H  0.27772377  0.58957132  0.28446338     0.12200
H227        H  0.28602943  0.59259352  0.22088552     0.12200
H228        H  0.14833245  0.47991835  0.21187425     0.12200
C229        C  0.10533550  0.54705034  0.42200949    -0.17100
C230        C  0.13685656  0.50505728  0.41064472    -0.32200
H231        H  0.11070056  0.58809054  0.41084058     0.12000
H232        H  0.13177747  0.46479357  0.42299682     0.12500
C233        C  0.33443818  0.70589183  0.38684516    -0.14000
C234        C  0.38751530  0.69894620  0.37214372     0.08200
C235        C  0.39932529  0.64819779  0.35593044    -0.14000
C236        C  0.36034682  0.60571800  0.35503234    -0.14000
C237        C  0.30815733  0.61170894  0.37075433     0.08200
C238        C  0.29552422  0.66287583  0.38631353    -0.14000
H239        H  0.32211440  0.74464131  0.39850917     0.12200
H240        H  0.43883866  0.63995761  0.34406119     0.12200
H241        H  0.37235155  0.56821014  0.34207608     0.12200
H242        H  0.25519759  0.67044364  0.39754868     0.12200
C243        C  0.53804991  0.28130892  0.27713748    -0.14000
C244        C  0.50615085  0.24324711  0.29638939     0.08200
C245        C  0.47360074  0.20450510  0.27831319    -0.14000
C246        C  0.47113888  0.20566552  0.24159765    -0.14000
C247        C  0.50093179  0.24577968  0.22256481     0.08200
C248        C  0.53538250  0.28264826  0.24064851    -0.14000
H249        H  0.56417234  0.31102704  0.29040388     0.12200
H250        H  0.44808647  0.17518622  0.29258690     0.12200
H251        H  0.44433254  0.17676748  0.22818368     0.12200
H252        H  0.55997539  0.31298250  0.22656258     0.12200
C253        C  0.52382023  0.14610743  0.43289189    -0.17100
C254        C  0.48212724  0.17830918  0.42247092    -0.32200
H255        H  0.56511286  0.15300596  0.42250068     0.12000
H256        H  0.44164632  0.17222985  0.43433004     0.12500
C257        C  0.40699979  0.39918010  0.36052537    -0.14000
C258        C  0.39499794  0.34340721  0.36698668     0.08200
C259        C  0.33952096  0.32675546  0.37018513    -0.14000
C260        C  0.29718647  0.36565510  0.36794354    -0.14000
C261        C  0.30959981  0.42187516  0.36244568     0.08200
C262        C  0.36486601  0.43787338  0.35832485    -0.14000
H263        H  0.44899216  0.41367266  0.35876677     0.12200
H264        H  0.32882253  0.28375779  0.37456201     0.12200
H265        H  0.25485433  0.35179161  0.37074790     0.12200
H266        H  0.37612381  0.48063470  0.35510728     0.12200
C267        C  0.63281795  0.34664405  0.40222830    -0.14000
C268        C  0.58365509  0.35350371  0.38315430     0.08200
C269        C  0.57597336  0.40397227  0.36569178    -0.14000
C270        C  0.61515469  0.44610535  0.36727749    -0.14000
C271        C  0.66412493  0.43992877  0.38640439     0.08200
C272        C  0.67242736  0.38920324  0.40383997    -0.14000
H273        H  0.64157551  0.30810226  0.41542378     0.12200
H274        H  0.53958804  0.41220866  0.35065783     0.12200
H275        H  0.60575629  0.48338341  0.35321968     0.12200
H276        H  0.70994309  0.38150377  0.41818057     0.12200
C277        C  0.49241520  0.22477421  0.89388753     0.85900
C278        C  0.44100824  0.26131709  0.89344318    -0.54400
C279        C  0.44423753  0.30485405  0.87097080     0.08800
C280        C  0.49911062  0.30766679  0.85054525     0.19700
C281        C  0.50093251  0.20717604  0.85549226    -0.55100
C282        C  0.50464590  0.25078269  0.83264958     0.08900
C283        C  0.54048020  0.26508045  0.90172879    -0.54600
C284        C  0.54477364  0.30888258  0.87876811     0.09500
H285        H  0.40541392  0.25419546  0.91031826     0.14000
H286        H  0.49975868  0.34187125  0.83134332    -0.00300
H287        H  0.50384882  0.16430320  0.84726329     0.14300
H288        H  0.56784268  0.25921602  0.92378153     0.14100
C289        C  0.18732939  0.51698387  0.88499863     0.85900
C290        C  0.22533306  0.56751730  0.89090055    -0.54400
C291        C  0.27082150  0.57007091  0.86935913     0.08800
C292        C  0.27363715  0.52048191  0.84397674     0.19700
C293        C  0.17327627  0.51900108  0.84564458    -0.55100
C294        C  0.21863113  0.52096396  0.82408450     0.08900
C295        C  0.22582632  0.46675739  0.88884473    -0.54600
C296        C  0.27110076  0.46878495  0.86739674     0.09500
H297        H  0.21660849  0.59800285  0.91098612     0.14000
H298        H  0.30939906  0.51991067  0.82590119    -0.00300
H299        H  0.13131953  0.51972361  0.83585243     0.14300
H300        H  0.21970569  0.43340420  0.90745578     0.14100
C301        C  0.79505941  0.53753372  0.90108642     0.85900
C302        C  0.75596912  0.48752468  0.90650920    -0.54400
C303        C  0.71466483  0.48326055  0.88210533     0.08800
C304        C  0.71690378  0.53084940  0.85492839     0.19700
C305        C  0.81638066  0.53238800  0.86330177    -0.55100
C306        C  0.77547730  0.52853347  0.83905100     0.08900
C307        C  0.75687498  0.58792567  0.90069748    -0.54600
C308        C  0.71550912  0.58463265  0.87665372     0.09500
H309        H  0.76074357  0.45888658  0.92815463     0.14000
H310        H  0.68496270  0.52981210  0.83440538    -0.00300
H311        H  0.85992086  0.53125893  0.85646080     0.14300
H312        H  0.76129108  0.62243169  0.91867995     0.14100
C313        C  0.48892991  0.82860229  0.89213571     0.85900
C314        C  0.54069023  0.79221802  0.89499045    -0.54400
C315        C  0.54161137  0.74884557  0.87212147     0.08800
C316        C  0.49025025  0.74576656  0.84857445     0.19700
C317        C  0.48657109  0.84604034  0.85344894    -0.55100
C318        C  0.48700224  0.80263785  0.83058808     0.08900
C319        C  0.44033262  0.78778993  0.89688269    -0.54600
C320        C  0.44026938  0.74411050  0.87390743     0.09500
H321        H  0.57290019  0.79817937  0.91417751     0.14000
H322        H  0.49245239  0.71175731  0.82928793    -0.00300
H323        H  0.48369201  0.88884119  0.84499217     0.14300
H324        H  0.40904434  0.79354092  0.91696880     0.14100
C325        C  0.52272328  0.22296172  0.61955924     0.85900
C326        C  0.57209236  0.26294712  0.61720104    -0.54400
C327        C  0.56956108  0.30693719  0.63968818     0.08800
C328        C  0.51668855  0.30605103  0.66253825     0.19700
C329        C  0.51978853  0.20559948  0.65838037    -0.55100
C330        C  0.51733830  0.24942896  0.68104034     0.08900
C331        C  0.47201793  0.25973406  0.61378948    -0.54600
C332        C  0.46834957  0.30318739  0.63651641     0.09500
H333        H  0.60527016  0.25705580  0.59842354     0.14000
H334        H  0.51230843  0.34027818  0.68146982    -0.00300
H335        H  0.52155575  0.16285867  0.66705523     0.14300
H336        H  0.44214617  0.25237625  0.59320356     0.14100
C337        C  0.21079125  0.51260169  0.61004326     0.85900
C338        C  0.25006995  0.46296412  0.60887524    -0.54400
C339        C  0.29187509  0.46535955  0.63258757     0.08800
C340        C  0.28986389  0.51759246  0.65567442     0.19700
C341        C  0.19022873  0.51502246  0.64827763    -0.55100
C342        C  0.23181827  0.51798962  0.67230456     0.08900
C343        C  0.24877072  0.56352234  0.60558777    -0.54600
C344        C  0.29050072  0.56689587  0.62975884     0.09500
H345        H  0.24606239  0.42964905  0.58998287     0.14000
H346        H  0.32221860  0.51771592  0.67588907    -0.00300
H347        H  0.14684912  0.51522104  0.65553289     0.14300
H348        H  0.24302875  0.59334403  0.58469971     0.14100
C349        C  0.81492662  0.53938830  0.62738823     0.85900
C350        C  0.77659780  0.58966655  0.62749233    -0.54400
C351        C  0.73316736  0.58536617  0.65009375     0.08800
C352        C  0.73250638  0.53091423  0.67093608     0.19700
C353        C  0.83283624  0.53268868  0.66582109    -0.55100
C354        C  0.78922955  0.52791676  0.68866797     0.08900
C355        C  0.77666905  0.48966144  0.62013112    -0.54600
C356        C  0.73356556  0.48442091  0.64333349     0.09500
H357        H  0.78226749  0.62491977  0.61014219     0.14000
H358        H  0.69815888  0.52894652  0.69009791    -0.00300
H359        H  0.87561588  0.53151375  0.67404768     0.14300
H360        H  0.78337100  0.46154749  0.59839200     0.14100
C361        C  0.51056890  0.82508541  0.61850619     0.85900
C362        C  0.46366466  0.78382153  0.61050557    -0.54400
C363        C  0.45868171  0.74151821  0.63433051     0.08800
C364        C  0.50278227  0.74453727  0.66338986     0.19700
C365        C  0.49987766  0.84462986  0.65629559    -0.55100
C366        C  0.49560520  0.80211901  0.67986888     0.05900
C367        C  0.56253587  0.78952732  0.62077235    -0.54600
C368        C  0.55876492  0.74719274  0.64419964     0.09500
H369        H  0.43728212  0.78805981  0.58781265     0.14000
H370        H  0.50112445  0.71127149  0.68326352    -0.00300
H371        H  0.49619773  0.88784854  0.66363502     0.14300
H372        H  0.59885115  0.79649998  0.60451209     0.14100
O373        O  0.94132870  0.56082974  0.54792011    -0.73600
O374        O  0.06019884  0.53789553  0.96490196    -0.74600
O375        O  0.94296353  0.55058470  0.96787862    -0.63200
O376        O  0.05593730  0.58200583  0.54042901    -0.71600
O377        O  0.07173017  0.49172136  0.53912095    -0.71100
O378        O  0.93570635  0.45960267  0.97459681    -0.62400
O379        O  0.05274964  0.44748872  0.97375130    -0.74900
O380        O  0.95696791  0.47047678  0.54764674    -0.73700
Cu381      Cu  0.99189071  0.57442623  0.50696263     1.04600
Cu382      Cu  0.00841219  0.47779463  0.50612698     1.04300
C383        C  0.93300999  0.51263723  0.56082246     0.92600
C384        C  0.07469727  0.48854589  0.95745791     0.91800
C385        C  0.92026774  0.50431462  0.95998158     0.83900
C386        C  0.08355537  0.54005615  0.55056789     0.90200
O387        O  0.53856577  0.08079063  0.54905328    -0.73600
O388        O  0.55932530  0.96538865  0.97729972    -0.74600
O389        O  0.55822749  0.08314211  0.97367304    -0.63200
O390        O  0.53298326  0.96316993  0.54698359    -0.71600
O391        O  0.44234996  0.96715815  0.53946451    -0.71100
O392        O  0.46839773  0.08112494  0.96286307    -0.62400
O393        O  0.46942552  0.96314427  0.96680938    -0.74900
O394        O  0.44785953  0.08362661  0.54164932    -0.73700
Cu395      Cu  0.54810482  0.02294611  0.51141879     1.04600
Cu396      Cu  0.45116104  0.02682087  0.50323237     1.04300
C397        C  0.49121970  0.10009807  0.55743106     0.92600
C398        C  0.51794040  0.94472940  0.96114630     0.91800
C399        C  0.51682231  0.10017543  0.95631019     0.83900
C400        C  0.48420697  0.94654197  0.55472230     0.90200
C401        C  0.47577504  0.90327824  0.58156985    -0.17100
C402        C  0.51749603  0.87105980  0.59199476    -0.32200
H403        H  0.43452901  0.89644870  0.59205681     0.12000
H404        H  0.55798669  0.87698907  0.58012053     0.12500
C405        C  0.89445879  0.50527151  0.59069032    -0.17100
C406        C  0.86115121  0.54655394  0.60095352    -0.32200
H407        H  0.89051167  0.46468150  0.60271881     0.12000
H408        H  0.86460712  0.58631264  0.58776141     0.12500
C409        C  0.63380012  0.61164286  0.65555418    -0.14000
C410        C  0.68919067  0.62779321  0.65218084     0.08200
C411        C  0.70175324  0.68430996  0.64847070    -0.14000
C412        C  0.65952783  0.72346119  0.64702711    -0.14000
C413        C  0.60394430  0.70680876  0.64925202     0.08200
C414        C  0.59169151  0.65065682  0.65416475    -0.14000
H415        H  0.62255850  0.56868902  0.65740881     0.12200
H416        H  0.74418082  0.69817007  0.64625922     0.12200
H417        H  0.67033710  0.76667539  0.64377282     0.12200
H418        H  0.54952040  0.63629403  0.65514292     0.12200
C419        C  0.16531352  0.50744378  0.58300260    -0.17100
C420        C  0.12867805  0.54770241  0.57628202    -0.32200
H421        H  0.16258213  0.46909070  0.56825461     0.12000
H422        H  0.13196620  0.58700218  0.58991147     0.12500
C423        C  0.32497005  0.66335014  0.61314978    -0.14000
C424        C  0.33268264  0.61271628  0.63083545     0.08200
C425        C  0.38158921  0.60622702  0.64999165    -0.14000
C426        C  0.42167706  0.64754856  0.65089422    -0.14000
C427        C  0.41481609  0.69759939  0.63284274     0.08200
C428        C  0.36540596  0.70515135  0.61415714    -0.14000
H429        H  0.28748700  0.67144285  0.59886756     0.12200
H430        H  0.39046483  0.56913089  0.66436375     0.12200
H431        H  0.45829007  0.63893936  0.66568698     0.12200
H432        H  0.35723411  0.74360672  0.60068428     0.12200
C433        C  0.52819508  0.17559121  0.59379912    -0.17100
C434        C  0.48598195  0.14205058  0.58538882    -0.32200
H435        H  0.56719268  0.17088221  0.57991778     0.12000
H436        H  0.44582123  0.14811336  0.59754142     0.12500
C437        C  0.36851223  0.32815537  0.62720475    -0.14000
C438        C  0.42261025  0.34416866  0.63582994     0.08200
C439        C  0.43292631  0.39990424  0.64373929    -0.14000
C440        C  0.39050053  0.43876257  0.64298728    -0.14000
C441        C  0.33644084  0.42306228  0.63438416     0.08200
C442        C  0.32590475  0.36714641  0.62652634    -0.14000
H443        H  0.35894525  0.28536456  0.62140695     0.12200
H444        H  0.47413475  0.41407788  0.64955052     0.12200
H445        H  0.40071113  0.48137404  0.64810903     0.12200
H446        H  0.28461630  0.35333823  0.62016388     0.12200
C447        C  0.64053663  0.44423948  0.65847247    -0.14000
C448        C  0.69253853  0.43805739  0.64263294     0.08200
C449        C  0.70499721  0.38688565  0.62700707    -0.14000
C450        C  0.66587016  0.34402866  0.62649898    -0.14000
C451        C  0.61288732  0.35131013  0.64129580     0.08200
C452        C  0.60145586  0.40200141  0.65761623    -0.14000
H453        H  0.62873159  0.48174343  0.67147324     0.12200
H454        H  0.74525442  0.37930267  0.61565504     0.12200
H455        H  0.67786139  0.30522189  0.61476404     0.12200
H456        H  0.56216645  0.41045244  0.66964914     0.12200
C457        C  0.51374485  0.84946605  0.77390492    -0.14000
C458        C  0.48342043  0.80860926  0.79197573     0.08200
C459        C  0.45205442  0.77044251  0.77277493    -0.14000
C460        C  0.45362601  0.77076165  0.73625213    -0.14000
C461        C  0.48676311  0.80911023  0.71809791     0.08200
C462        C  0.51545804  0.84968176  0.73714948    -0.14000
H463        H  0.53832539  0.87932851  0.78815690     0.12200
H464        H  0.42712064  0.73947254  0.78604159     0.12200
H465        H  0.43001720  0.73988871  0.72217535     0.12200
H466        H  0.54153024  0.87952594  0.72374720     0.12200
C467        C  0.52635305  0.89858119  0.93622108    -0.17100
C468        C  0.48463181  0.87772714  0.91688443    -0.32200
H469        H  0.56769753  0.88220492  0.93398276     0.12000
H470        H  0.44456860  0.89765365  0.91822341     0.12500
C471        C  0.75140257  0.48785269  0.78116358    -0.14000
C472        C  0.78573040  0.52252777  0.80088634     0.08200
C473        C  0.82700102  0.55350909  0.78360437    -0.14000
C474        C  0.83097530  0.55281069  0.74690197    -0.14000
C475        C  0.79382602  0.52098412  0.72716336     0.08200
C476        C  0.75558960  0.48688695  0.74473275    -0.14000
H477        H  0.72035169  0.46234114  0.79389146     0.12200
H478        H  0.85408302  0.58052393  0.79828908     0.12200
H479        H  0.86072742  0.57954509  0.73395604     0.12200
H480        H  0.72745751  0.46076107  0.73017824     0.12200
C481        C  0.84081555  0.54254446  0.92778266    -0.17100
C482        C  0.87611566  0.50100482  0.93362493    -0.32200
H483        H  0.84477500  0.58057030  0.94276246     0.12000
H484        H  0.87043540  0.46201165  0.91993175     0.12500
C485        C  0.61722737  0.61204073  0.86639564    -0.14000
C486        C  0.67190319  0.62753426  0.87339663     0.08200
C487        C  0.68391943  0.68385421  0.87876518    -0.14000
C488        C  0.64193201  0.72343357  0.87772731    -0.14000
C489        C  0.58700935  0.70755553  0.87131686     0.08200
C490        C  0.57536422  0.65149127  0.86534500    -0.14000
H491        H  0.60613091  0.56918228  0.86312664     0.12200
H492        H  0.72577671  0.69734857  0.88379112     0.12200
H493        H  0.65247439  0.76647619  0.88194362     0.12200
H494        H  0.53359516  0.63756546  0.86122503     0.12200
C495        C  0.17909701  0.49253062  0.76545422    -0.14000
C496        C  0.21670682  0.52417621  0.78508324     0.08200
C497        C  0.25579129  0.55680999  0.76715207    -0.14000
C498        C  0.25902063  0.55604056  0.73061685    -0.14000
C499        C  0.22329992  0.52256508  0.71092353     0.08200
C500        C  0.18235936  0.49174283  0.72863498    -0.14000
H501        H  0.14873362  0.46673329  0.77858586     0.12200
H502        H  0.28444247  0.58271787  0.78144191     0.12200
H503        H  0.29002151  0.58143694  0.71775757     0.12200
H504        H  0.15440709  0.46538404  0.71413723     0.12200
C505        C  0.11868089  0.47895133  0.93080298    -0.17100
C506        C  0.13659831  0.51950161  0.90895837    -0.32200
H507        H  0.13704103  0.43824610  0.93013187     0.12000
H508        H  0.11451564  0.55853698  0.90892121     0.12500
C509        C  0.34362632  0.70828945  0.88813745    -0.14000
C510        C  0.39615787  0.70013770  0.87296850     0.08200
C511        C  0.40599208  0.64940693  0.85618805    -0.14000
C512        C  0.36565659  0.60817432  0.85493444    -0.14000
C513        C  0.31351396  0.61550101  0.87055201     0.08200
C514        C  0.30300996  0.66667640  0.88696722    -0.14000
H515        H  0.33311470  0.74710391  0.90047044     0.12200
H516        H  0.44502265  0.64027566  0.84401493     0.12200
H517        H  0.37670678  0.57050315  0.84174502     0.12200
H518        H  0.26317439  0.67542173  0.89850630     0.12200
C519        C  0.54466830  0.28454468  0.77601777    -0.14000
C520        C  0.51251292  0.24524395  0.79406457     0.08200
C521        C  0.48558042  0.20366474  0.77473351    -0.14000
C522        C  0.48854281  0.20335538  0.73792738    -0.14000
C523        C  0.51843180  0.24464951  0.71995308     0.08200
C524        C  0.54763952  0.28421178  0.73949390    -0.14000
H525        H  0.56720924  0.31612790  0.79015663     0.12200
H526        H  0.46034498  0.17291645  0.78794609     0.12200
H527        H  0.46563410  0.17235320  0.72353287     0.12200
H528        H  0.57251384  0.31550688  0.72650505     0.12200
C529        C  0.52564705  0.14291642  0.92894549    -0.17100
C530        C  0.48504032  0.17735863  0.91962291    -0.32200
H531        H  0.56685552  0.14887431  0.91820176     0.12000
H532        H  0.44494018  0.17235275  0.93219067     0.12500
C533        C  0.41252790  0.40279630  0.86594391    -0.14000
C534        C  0.39958280  0.34636327  0.86821911     0.08200
C535        C  0.34381682  0.33013379  0.86995091    -0.14000
C536        C  0.30191646  0.36974921  0.86965763    -0.14000
C537        C  0.31504862  0.42627090  0.86755195     0.08200
C538        C  0.37070908  0.44229999  0.86570731    -0.14000
H539        H  0.45495815  0.41661373  0.86567276     0.12200
H540        H  0.33262888  0.28677779  0.87150790     0.12200
H541        H  0.25928898  0.35623029  0.87082110     0.12200
H542        H  0.38211495  0.48546207  0.86523469     0.12200
C543        C  0.63789049  0.34613386  0.89958682    -0.14000
C544        C  0.58872924  0.35318662  0.88048876     0.08200
C545        C  0.58227369  0.40319964  0.86215840    -0.14000
C546        C  0.62282147  0.44427023  0.86262859    -0.14000
C547        C  0.67167266  0.43793014  0.88184939     0.08200
C548        C  0.67861561  0.38784082  0.90031301    -0.14000
H549        H  0.64575745  0.30809650  0.91357079     0.12200
H550        H  0.54573295  0.41201247  0.84733275     0.12200
H551        H  0.61452084  0.48107333  0.84780270     0.12200
H552        H  0.71589270  0.37998765  0.91487122     0.12200
loop_ 
_geom_bond_atom_site_label_1 
_geom_bond_atom_site_label_2 
_geom_bond_distance 
_geom_bond_site_symmetry_2 
_ccdc_geom_bond_type 
C1            C2   1.531       .  S
C1            C7   1.541       .  S
C1            C5   1.539       .  S
C1          C254   1.510       .  S
C2            H9   1.086       .  S
C2            C3   1.360       .  D
C3            C4   1.538       .  S
C3          C258   1.482       .  S
C4            C8   1.547       .  S
C4            C6   1.537       .  S
C4           H10   1.105       .  S
C5           H11   1.086       .  S
C5            C6   1.368       .  D
C6          C244   1.483       .  S
C7           H12   1.084       .  S
C7            C8   1.372       .  D
C8          C268   1.502       .  S
C13          C14   1.542       .  S
C13          C19   1.532       .  S
C13          C17   1.542       .  S
C13         C230   1.514       .  S
C14          H21   1.085       .  S
C14          C15   1.372       .  D
C15          C16   1.541       .  S
C15         C237   1.498       .  S
C16          C20   1.537       .  S
C16          C18   1.537       .  S
C16          H22   1.105       .  S
C17          H23   1.086       .  S
C17          C18   1.372       .  D
C18         C220   1.485       .  S
C19          H24   1.086       .  S
C19          C20   1.359       .  D
C20         C261   1.483       .  S
C25          C26   1.544       .  S
C25          C31   1.535       .  S
C25          C29   1.538       .  S
C25         C205   1.517       .  S
C26          H33   1.084       .  S
C26          C27   1.375       .  D
C27          C28   1.546       .  S
C27         C271   1.504       .  S
C28          C32   1.540       .  S
C28          C30   1.542       .  S
C28          H34   1.103       .  S
C29          H35   1.086       .  S
C29          C30   1.368       .  D
C30         C196   1.493       .  S
C31          H36   1.086       .  S
C31          C32   1.361       .  D
C32         C210   1.488       .  S
C37          C38   1.536       .  S
C37          C43   1.537       .  S
C37          C41   1.539       .  S
C37         C192   1.515       .  S
C38          H45   1.086       .  S
C38          C39   1.363       .  D
C39          C40   1.539       .  S
C39         C213   1.483       .  S
C40          C44   1.546       .  S
C40          C42   1.541       .  S
C40          H46   1.105       .  S
C41          H47   1.086       .  S
C41          C42   1.370       .  D
C42         C182   1.489       .  S
C43          H48   1.084       .  S
C43          C44   1.369       .  D
C44         C234   1.501       .  S
C49          C50   1.534       .  S
C49          C55   1.547       .  S
C49          C53   1.535       .  S
C49         C157   1.521       .  S
C50          H57   1.085       .  S
C50          C51   1.369       .  D
C51          C52   1.540       .  S
C51         C175   1.495       .  S
C52          C56   1.545       .  S
C52          C54   1.538       .  S
C52          H58   1.106       .  S
C53          H59   1.086       .  S
C53          C54   1.365       .  D
C54         C247   1.483       .  S
C55          H60   1.083       .  S
C55          C56   1.370       .  D
C56         C162   1.496       .  S
C61          C62   1.539       .  S
C61          C67   1.535       .  S
C61          C65   1.535       .  S
C61         C143   1.513       .  S
C62          H69   1.086       .  S
C62          C63   1.368       .  D
C63          C64   1.546       .  S
C63         C165   1.494       .  S
C64          C68   1.547       .  S
C64          C66   1.542       .  S
C64          H70   1.106       .  S
C65          H71   1.086       .  S
C65          C66   1.364       .  D
C66         C223   1.484       .  S
C67          H72   1.084       .  S
C67          C68   1.370       .  D
C68         C148   1.501       .  S
C73          C74   1.548       .  S
C73          C79   1.534       .  S
C73          C77   1.542       .  S
C73         C130   1.528       .  S
C74          H81   1.082       .  S
C74          C75   1.368       .  D
C75          C76   1.540       .  S
C75         C134   1.491       .  S
C76          C80   1.540       .  S
C76          C78   1.538       .  S
C76          H82   1.106       .  S
C77          H83   1.086       .  S
C77          C78   1.371       .  D
C78         C199   1.490       .  S
C79          H84   1.085       .  S
C79          C80   1.368       .  D
C80         C172   1.495       .  S
C85          C86   1.540       .  S
C85          C91   1.538       .  S
C85          C89   1.540       .  S
C85         C126   1.520       .  S
C86          H93   1.084       .  S
C86          C87   1.371       .  D
C87          C88   1.542       .  S
C87         C151   1.498       .  S
C88          C92   1.543       .  S
C88          C90   1.542       .  S
C88          H94   1.105       .  S
C89          H95   1.086       .  S
C89          C90   1.370       .  D
C90         C185   1.490       .  S
C91          H96   1.086       .  S
C91          C92   1.364       .  D
C92         C137   1.493       .  S
O97        Cu105   2.003   1_655  S
O97         C107   1.275       .  A
O98        Cu381   2.018   1_455  S
O98         C108   1.277       .  A
O99        Cu381   2.017       .  S
O99         C109   1.280       .  A
O100       Cu105   2.034       .  S
O100        C110   1.282       .  A
O101       Cu106   1.990   1_455  S
O101        C110   1.273       .  A
O102       Cu382   2.021   1_655  S
O102        C109   1.278       .  A
O103       Cu382   2.009       .  S
O103        C108   1.279       .  A
O104       Cu106   2.045       .  S
O104        C107   1.283       .  A
Cu105       O374   2.010   1_554  S
Cu105       O375   2.030   1_454  S
Cu105      Cu106   2.372   1_455  S
Cu106       O378   1.999   1_554  S
Cu106       O379   2.042   1_654  S
C107        C129   1.484       .  S
C108        C229   1.481       .  S
C109        C206   1.483       .  S
C110        C144   1.475       .  S
O111       Cu119   2.038       .  S
O111        C121   1.283       .  A
O112       Cu395   2.011   1_565  S
O112        C122   1.277       .  A
O113       Cu395   2.005       .  S
O113        C123   1.275       .  A
O114       Cu119   2.006   1_565  S
O114        C124   1.277       .  A
O115       Cu120   2.035   1_565  S
O115        C124   1.281       .  A
O116       Cu396   2.013       .  S
O116        C123   1.280       .  A
O117       Cu396   2.016   1_565  S
O117        C122   1.279       .  A
O118       Cu120   1.994       .  S
O118        C121   1.274       .  A
Cu119       O388   2.027   1_544  S
Cu119       O389   2.010   1_554  S
Cu119      Cu120   2.372       .  S
Cu120       O392   2.029   1_554  S
Cu120       O393   2.003   1_544  S
C121        C158   1.479       .  S
C122        C191   1.477       .  S
C123        C253   1.476       .  S
C124        C125   1.484       .  S
C125        H127   1.086       .  S
C125        C126   1.350       .  D
C126        H128   1.087       .  S
C129        H131   1.082       .  S
C129        C130   1.346       .  D
C130        H132   1.087       .  S
C133        C134   1.402       .  A
C133        C138   1.395       .  A
C133        H139   1.078       .  S
C134        C135   1.407       .  A
C135        C136   1.406       .  A
C135        H140   1.083       .  S
C136        C137   1.409       .  A
C136        H141   1.083       .  S
C137        C138   1.402       .  A
C138        H142   1.077       .  S
C143        H145   1.087       .  S
C143        C144   1.340       .  D
C144        H146   1.087       .  S
C147        C148   1.410       .  A
C147        C152   1.400       .  A
C147        H153   1.080       .  S
C148        C149   1.405       .  A
C149        C150   1.395       .  A
C149        H154   1.075       .  S
C150        C151   1.405       .  A
C150        H155   1.076       .  S
C151        C152   1.407       .  A
C152        H156   1.081       .  S
C157        H159   1.087       .  S
C157        C158   1.342       .  D
C158        H160   1.082       .  S
C161        C162   1.408       .  A
C161        C166   1.407       .  A
C161        H167   1.083       .  S
C162        C163   1.403       .  A
C163        C164   1.396       .  A
C163        H168   1.077       .  S
C164        C165   1.402       .  A
C164        H169   1.077       .  S
C165        C166   1.408       .  A
C166        H170   1.083       .  S
C171        C172   1.405       .  A
C171        C176   1.395       .  A
C171        H177   1.076       .  S
C172        C173   1.407       .  A
C173        C174   1.395       .  A
C173        H178   1.081       .  S
C174        C175   1.407       .  A
C174        H179   1.081       .  S
C175        C176   1.405       .  A
C176        H180   1.076       .  S
C181        C182   1.407       .  A
C181        C186   1.406       .  A
C181        H187   1.083       .  S
C182        C183   1.404       .  A
C183        C184   1.395       .  A
C183        H188   1.083       .  S
C184        C185   1.404       .  A
C184        H189   1.083       .  S
C185        C186   1.407       .  A
C186        H190   1.083       .  S
C191        H193   1.086       .  S
C191        C192   1.343       .  D
C192        H194   1.087       .  S
C195        C196   1.405       .  A
C195        C200   1.395       .  A
C195        H201   1.082       .  S
C196        C197   1.408       .  A
C197        C198   1.405       .  A
C197        H202   1.082       .  S
C198        C199   1.406       .  A
C198        H203   1.083       .  S
C199        C200   1.404       .  A
C200        H204   1.083       .  S
C205        H207   1.087       .  S
C205        C206   1.345       .  D
C206        H208   1.086       .  S
C209        C210   1.403       .  A
C209        C214   1.395       .  A
C209        H215   1.077       .  S
C210        C211   1.407       .  A
C211        C212   1.402       .  A
C211        H216   1.083       .  S
C212        C213   1.406       .  A
C212        H217   1.083       .  S
C213        C214   1.400       .  A
C214        H218   1.080       .  S
C219        C220   1.405       .  A
C219        C224   1.405       .  A
C219        H225   1.083       .  S
C220        C221   1.405       .  A
C221        C222   1.393       .  A
C221        H226   1.083       .  S
C222        C223   1.401       .  A
C222        H227   1.083       .  S
C223        C224   1.408       .  A
C224        H228   1.083       .  S
C229        H231   1.086       .  S
C229        C230   1.344       .  D
C230        H232   1.087       .  S
C233        C234   1.411       .  A
C233        C238   1.401       .  A
C233        H239   1.080       .  S
C234        C235   1.404       .  A
C235        C236   1.393       .  A
C235        H240   1.076       .  S
C236        C237   1.405       .  A
C236        H241   1.074       .  S
C237        C238   1.407       .  A
C238        H242   1.081       .  S
C243        C244   1.403       .  A
C243        C248   1.394       .  A
C243        H249   1.083       .  S
C244        C245   1.406       .  A
C245        C246   1.403       .  A
C245        H250   1.083       .  S
C246        C247   1.405       .  A
C246        H251   1.083       .  S
C247        C248   1.403       .  A
C248        H252   1.083       .  S
C253        H255   1.086       .  S
C253        C254   1.340       .  D
C254        H256   1.087       .  S
C257        C258   1.399       .  A
C257        C262   1.391       .  A
C257        H263   1.077       .  S
C258        C259   1.406       .  A
C259        C260   1.398       .  A
C259        H264   1.083       .  S
C260        C261   1.406       .  A
C260        H265   1.083       .  S
C261        C262   1.400       .  A
C262        H266   1.075       .  S
C267        C268   1.410       .  A
C267        C272   1.406       .  A
C267        H273   1.081       .  S
C268        C269   1.403       .  A
C269        C270   1.391       .  A
C269        H274   1.074       .  S
C270        C271   1.406       .  A
C270        H275   1.074       .  S
C271        C272   1.410       .  A
C272        H276   1.081       .  S
C277        C278   1.531       .  S
C277        C283   1.546       .  S
C277        C281   1.539       .  S
C277        C530   1.518       .  S
C278        H285   1.086       .  S
C278        C279   1.358       .  D
C279        C280   1.539       .  S
C279        C534   1.483       .  S
C280        C284   1.549       .  S
C280        C282   1.542       .  S
C280        H286   1.104       .  S
C281        H287   1.086       .  S
C281        C282   1.369       .  D
C282        C520   1.490       .  S
C283        H288   1.084       .  S
C283        C284   1.377       .  D
C284        C544   1.509       .  S
C289        C290   1.544       .  S
C289        C295   1.542       .  S
C289        C293   1.542       .  S
C289        C506   1.529       .  S
C290        H297   1.084       .  S
C290        C291   1.372       .  D
C291        C292   1.543       .  S
C291        C513   1.506       .  S
C292        C296   1.536       .  S
C292        C294   1.538       .  S
C292        H298   1.105       .  S
C293        H299   1.086       .  S
C293        C294   1.370       .  D
C294        C496   1.491       .  S
C295        H300   1.083       .  S
C295        C296   1.366       .  D
C296        C537   1.484       .  S
C301        C302   1.545       .  S
C301        C307   1.533       .  S
C301        C305   1.534       .  S
C301        C481   1.515       .  S
C302        H309   1.084       .  S
C302        C303   1.375       .  D
C303        C304   1.548       .  S
C303        C547   1.509       .  S
C304        C308   1.543       .  S
C304        C306   1.542       .  S
C304        H310   1.105       .  S
C305        H311   1.086       .  S
C305        C306   1.363       .  D
C306        C472   1.483       .  S
C307        H312   1.086       .  S
C307        C308   1.365       .  D
C308        C486   1.490       .  S
C313        C314   1.540       .  S
C313        C319   1.543       .  S
C313        C317   1.536       .  S
C313        C468   1.521       .  S
C314        H321   1.083       .  S
C314        C315   1.365       .  D
C315        C316   1.541       .  S
C315        C489   1.489       .  S
C316        C320   1.546       .  S
C316        C318   1.538       .  S
C316        H322   1.105       .  S
C317        H323   1.086       .  S
C317        C318   1.365       .  D
C318        C458   1.483       .  S
C319        H324   1.084       .  S
C319        C320   1.373       .  D
C320        C510   1.505       .  S
C325        C326   1.537       .  S
C325        C331   1.537       .  S
C325        C329   1.540       .  S
C325        C433   1.516       .  S
C326        H333   1.084       .  S
C326        C327   1.368       .  D
C327        C328   1.546       .  S
C327        C451   1.499       .  S
C328        C332   1.542       .  S
C328        C330   1.540       .  S
C328        H334   1.104       .  S
C329        H335   1.086       .  S
C329        C330   1.369       .  D
C330        C523   1.489       .  S
C331        H336   1.086       .  S
C331        C332   1.366       .  D
C332        C438   1.490       .  S
C337        C338   1.536       .  S
C337        C343   1.542       .  S
C337        C341   1.540       .  S
C337        C419   1.519       .  S
C338        H345   1.086       .  S
C338        C339   1.364       .  D
C339        C340   1.541       .  S
C339        C441   1.493       .  S
C340        C344   1.548       .  S
C340        C342   1.540       .  S
C340        H346   1.103       .  S
C341        H347   1.086       .  S
C341        C342   1.368       .  D
C342        C499   1.491       .  S
C343        H348   1.084       .  S
C343        C344   1.375       .  D
C344        C424   1.505       .  S
C349        C350   1.533       .  S
C349        C355   1.541       .  S
C349        C353   1.540       .  S
C349        C406   1.512       .  S
C350        H357   1.086       .  S
C350        C351   1.360       .  D
C351        C352   1.537       .  S
C351        C410   1.484       .  S
C352        C356   1.541       .  S
C352        C354   1.538       .  S
C352        H358   1.106       .  S
C353        H359   1.086       .  S
C353        C354   1.370       .  D
C354        C475   1.483       .  S
C355        H360   1.085       .  S
C355        C356   1.371       .  D
C356        C448   1.495       .  S
C361        C362   1.541       .  S
C361        C367   1.531       .  S
C361        C365   1.539       .  S
C361        C402   1.510       .  S
C362        H369   1.084       .  S
C362        C363   1.372       .  D
C363        C364   1.546       .  S
C363        C427   1.500       .  S
C364        C368   1.539       .  S
C364        C366   1.538       .  S
C364        H370   1.105       .  S
C365        H371   1.086       .  S
C365        C366   1.368       .  D
C366        C461   1.483       .  S
C367        H372   1.086       .  S
C367        C368   1.360       .  D
C368        C413   1.484       .  S
O373       Cu381   2.006       .  S
O373        C383   1.279       .  A
O374        C384   1.277       .  A
O375        C385   1.281       .  A
O376       Cu381   2.024   1_455  S
O376        C386   1.278       .  A
O377       Cu382   2.018       .  S
O377        C386   1.280       .  A
O378        C385   1.274       .  A
O379        C384   1.282       .  A
O380       Cu382   2.017   1_655  S
O380        C383   1.277       .  A
Cu381      Cu382   2.372   1_655  S
C383        C405   1.479       .  S
C384        C505   1.488       .  S
C385        C482   1.475       .  S
C386        C420   1.485       .  S
O387       Cu395   2.018       .  S
O387        C397   1.280       .  A
O388        C398   1.280       .  A
O389        C399   1.275       .  A
O390       Cu395   2.012   1_565  S
O390        C400   1.280       .  A
O391       Cu396   2.007   1_565  S
O391        C400   1.276       .  A
O392        C399   1.282       .  A
O393        C398   1.277       .  A
O394       Cu396   2.011       .  S
O394        C397   1.277       .  A
Cu395      Cu396   2.375       .  S
C397        C434   1.478       .  S
C398        C467   1.481       .  S
C399        C529   1.482       .  S
C400        C401   1.476       .  S
C401        H403   1.086       .  S
C401        C402   1.341       .  D
C402        H404   1.087       .  S
C405        H407   1.086       .  S
C405        C406   1.344       .  D
C406        H408   1.087       .  S
C409        C410   1.402       .  A
C409        C414   1.394       .  A
C409        H415   1.074       .  S
C410        C411   1.405       .  A
C411        C412   1.398       .  A
C411        H416   1.083       .  S
C412        C413   1.406       .  A
C412        H417   1.083       .  S
C413        C414   1.400       .  A
C414        H418   1.078       .  S
C419        H421   1.087       .  S
C419        C420   1.346       .  D
C420        H422   1.086       .  S
C423        C424   1.411       .  A
C423        C428   1.405       .  A
C423        H429   1.081       .  S
C424        C425   1.406       .  A
C425        C426   1.391       .  A
C425        H430   1.074       .  S
C426        C427   1.403       .  A
C426        H431   1.076       .  S
C427        C428   1.410       .  A
C428        H432   1.081       .  S
C433        H435   1.087       .  S
C433        C434   1.343       .  D
C434        H436   1.086       .  S
C437        C438   1.407       .  A
C437        C442   1.402       .  A
C437        H443   1.082       .  S
C438        C439   1.403       .  A
C439        C440   1.396       .  A
C439        H444   1.079       .  S
C440        C441   1.403       .  A
C440        H445   1.077       .  S
C441        C442   1.407       .  A
C442        H446   1.083       .  S
C447        C448   1.403       .  A
C447        C452   1.390       .  A
C447        H453   1.073       .  S
C448        C449   1.407       .  A
C449        C450   1.402       .  A
C449        H454   1.082       .  S
C450        C451   1.412       .  A
C450        H455   1.080       .  S
C451        C452   1.403       .  A
C452        H456   1.075       .  S
C457        C458   1.406       .  A
C457        C462   1.403       .  A
C457        H463   1.083       .  S
C458        C459   1.403       .  A
C459        C460   1.394       .  A
C459        H464   1.083       .  S
C460        C461   1.403       .  A
C460        H465   1.083       .  S
C461        C462   1.405       .  A
C462        H466   1.083       .  S
C467        H469   1.082       .  S
C467        C468   1.351       .  D
C468        H470   1.087       .  S
C471        C472   1.401       .  A
C471        C476   1.393       .  A
C471        H477   1.083       .  S
C472        C473   1.407       .  A
C473        C474   1.403       .  A
C473        H478   1.083       .  S
C474        C475   1.405       .  A
C474        H479   1.083       .  S
C475        C476   1.404       .  A
C476        H480   1.083       .  S
C481        H483   1.087       .  S
C481        C482   1.342       .  D
C482        H484   1.087       .  S
C485        C486   1.403       .  A
C485        C490   1.396       .  A
C485        H491   1.077       .  S
C486        C487   1.406       .  A
C487        C488   1.401       .  A
C487        H492   1.083       .  S
C488        C489   1.407       .  A
C488        H493   1.083       .  S
C489        C490   1.402       .  A
C490        H494   1.078       .  S
C495        C496   1.407       .  A
C495        C500   1.407       .  A
C495        H501   1.083       .  S
C496        C497   1.404       .  A
C497        C498   1.396       .  A
C497        H502   1.083       .  S
C498        C499   1.404       .  A
C498        H503   1.083       .  S
C499        C500   1.407       .  A
C500        H504   1.083       .  S
C505        H507   1.082       .  S
C505        C506   1.354       .  D
C506        H508   1.087       .  S
C509        C510   1.410       .  A
C509        C514   1.405       .  A
C509        H515   1.081       .  S
C510        C511   1.405       .  A
C511        C512   1.394       .  A
C511        H516   1.075       .  S
C512        C513   1.406       .  A
C512        H517   1.075       .  S
C513        C514   1.411       .  A
C514        H518   1.081       .  S
C519        C520   1.403       .  A
C519        C524   1.395       .  A
C519        H525   1.083       .  S
C520        C521   1.408       .  A
C521        C522   1.406       .  A
C521        H526   1.083       .  S
C522        C523   1.406       .  A
C522        H527   1.083       .  S
C523        C524   1.405       .  A
C524        H528   1.083       .  S
C529        H531   1.086       .  S
C529        C530   1.341       .  D
C530        H532   1.087       .  S
C533        C534   1.401       .  A
C533        C538   1.396       .  A
C533        H539   1.080       .  S
C534        C535   1.407       .  A
C535        C536   1.399       .  A
C535        H540   1.083       .  S
C536        C537   1.404       .  A
C536        H541   1.083       .  S
C537        C538   1.403       .  A
C538        H542   1.078       .  S
C543        C544   1.411       .  A
C543        C548   1.408       .  A
C543        H549   1.081       .  S
C544        C545   1.406       .  A
C545        C546   1.394       .  A
C545        H550   1.076       .  S
C546        C547   1.405       .  A
C546        H551   1.074       .  S
C547        C548   1.411       .  A
C548        H552   1.081       .  S
