geometry optimzed in LAMMPS
_audit_creation_date              2020-11-30 
_audit_creation_method            'lammps2cif' 
_symmetry_space_group_name_H-M    'P1' 
_symmetry_Int_Tables_number       1 
_symmetry_cell_setting            triclinic 
loop_ 
_symmetry_equiv_pos_as_xyz 
  x,y,z 
_cell_length_a                    39.47890459 
_cell_length_b                    39.35391594437113 
_cell_length_c                    42.19133334207072 
_cell_angle_alpha                 89.85218493931839 
_cell_angle_beta                  89.99281823697456 
_cell_angle_gamma                 119.71618353007199 
loop_ 
_atom_site_label 
_atom_site_type_symbol 
_atom_site_fract_x 
_atom_site_fract_y 
_atom_site_fract_z 
_atom_site_charge 
O1          O  0.09378903  0.31862625  0.39992433    -0.85100
O2          O  0.16250499  0.38422603  0.41622058    -0.82100
C3          C  0.19869840  0.40644189  0.41962396     0.98400
O4          O  0.22263439  0.40473194  0.40070386    -0.82200
O5          O  0.21931872  0.33511888  0.41578343    -0.84800
C6          C  0.20525971  0.29869511  0.41861354     1.02900
O7          O  0.17999731  0.27536575  0.39927568    -0.77600
O8          O  0.11428513  0.27853687  0.41505872    -0.77800
C9          C  0.09201190  0.29262779  0.41862092     1.02800
O10         O  0.11432259  0.33634021  0.33414452    -0.85100
O11         O  0.17916647  0.40533994  0.35043491    -0.82200
C12         C  0.20511411  0.40775657  0.33148760     0.98000
O13         O  0.21978452  0.38590346  0.33468325    -0.82200
O14         O  0.22394082  0.32017770  0.34975222    -0.84800
C15         C  0.20071666  0.29470314  0.33047940     1.02900
O16         O  0.16437651  0.28027830  0.33342587    -0.77600
O17         O  0.09464063  0.27595294  0.34910051    -0.77800
C18         C  0.09251140  0.30004633  0.33047571     1.02800
Cr19       Cr  0.13947299  0.35913704  0.37517097     1.93700
Cr20       Cr  0.21741537  0.35946741  0.37521257     1.93200
Cr21       Cr  0.14026866  0.28154427  0.37424137     1.39100
O22         O  0.16572091  0.33339095  0.37485546    -1.22900
O23         O  0.38487029  0.16374350  0.16552835    -0.85100
O24         O  0.32002778  0.09474036  0.14924561    -0.82100
C25         C  0.29408081  0.09232841  0.16819138     0.98400
O26         O  0.27940973  0.11418026  0.16498964    -0.82200
O27         O  0.27525528  0.17990372  0.14990517    -0.84800
C28         C  0.29848001  0.20538409  0.16917421     1.02900
O29         O  0.33482011  0.21980770  0.16622854    -0.77600
O30         O  0.40455526  0.22412730  0.15056071    -0.77800
C31         C  0.40668176  0.20003810  0.16919223     1.02800
O32         O  0.40540591  0.18144002  0.09974664    -0.85100
O33         O  0.33669028  0.11583807  0.08345765    -0.82200
C34         C  0.30049695  0.09362206  0.08005462     0.98400
O35         O  0.27656064  0.09533578  0.09897214    -0.82200
O36         O  0.27987580  0.16494507  0.08387745    -0.84800
C37         C  0.29393521  0.20136826  0.08104149     1.02900
O38         O  0.31919819  0.22470178  0.10037698    -0.77600
O39         O  0.38490789  0.22152349  0.08460038    -0.77800
C40         C  0.40717956  0.20742997  0.08104222     1.02800
Cr41       Cr  0.35972156  0.14093661  0.12450418     1.93700
Cr42       Cr  0.28177945  0.14060670  0.12445425     1.93200
Cr43       Cr  0.35892694  0.21852961  0.12541609     1.39100
O44         O  0.33347392  0.16668295  0.12481115    -1.22900
C45         C  0.01753324  0.27230326  0.47323386     0.30000
C46         C  0.98711844  0.27583046  0.98708120    -0.36300
C47         C  0.46983574  0.25267080  0.01400515     0.16000
C48         C  0.48164299  0.22773094  0.02641880     0.21800
C49         C  0.51205734  0.22420265  0.51257065    -0.34400
C50         C  0.02934060  0.24736314  0.48564674     0.15900
O51         O  0.03787993  0.29134802  0.44803986    -0.26500
C52         C  0.06300998  0.27841517  0.44423576     0.05700
C53         C  0.05905125  0.25097151  0.46692372    -0.31300
O54         O  0.46130082  0.20869279  0.05161684    -0.23200
C55         C  0.43617422  0.22163027  0.05542200    -0.03200
C56         C  0.44013019  0.24906895  0.03273068    -0.17600
H57         H  0.97761930  0.29527220  0.97753842     0.20400
H58         H  0.52155784  0.20476390  0.52211427     0.18800
H59         H  0.07577012  0.23608617  0.46933446     0.18700
H60         H  0.42341379  0.26395869  0.03032076     0.14600
C61         C  0.48070831  0.25433625  0.22386033     0.30000
C62         C  0.51051715  0.28829396  0.23793845    -0.36300
C63         C  0.02880789  0.28246710  0.26420711     0.16000
C64         C  0.01847679  0.24575335  0.27581277     0.21800
C65         C  0.98866764  0.21179613  0.26173509    -0.34400
C66         C  0.47037708  0.21762275  0.23546662     0.15900
O67         O  0.45973622  0.25297690  0.19909884    -0.26500
C68         C  0.43565670  0.21491236  0.19477584     0.05700
C69         C  0.44093895  0.19148812  0.21669747    -0.31300
O70         O  0.03945142  0.24711181  0.30057193    -0.23200
C71         C  0.06353273  0.28517581  0.30489470    -0.03200
C72         C  0.05824882  0.30860122  0.28297509    -0.17600
H73         H  0.51885402  0.31721123  0.22903205     0.20400
H74         H  0.98033146  0.18287725  0.27064111     0.18800
H75         H  0.42534059  0.15988377  0.21851687     0.18700
H76         H  0.07384882  0.34020493  0.28115518     0.14600
C77         C  0.25097212  0.47112547  0.26753591     0.30000
C78         C  0.27776919  0.48824797  0.24264218    -0.36300
C79         C  0.27521446  0.01738248  0.22539000     0.16000
C80         C  0.24822884  0.02897093  0.23215150     0.21800
C81         C  0.22143202  0.01184866  0.25704570    -0.34400
C82         C  0.22398662  0.48271398  0.27429792     0.15900
O83         O  0.24803518  0.44325197  0.28668487    -0.26500
C84         C  0.21884735  0.43701107  0.30598311     0.05700
C85         C  0.20279438  0.46072126  0.29939818    -0.31300
O86         O  0.25116363  0.05684154  0.21299984    -0.23200
C87         C  0.28035044  0.06308033  0.19370089    -0.03200
C88         C  0.29640468  0.03937201  0.20028819    -0.17600
H89         H  0.29908124  0.47946035  0.23710088     0.20400
H90         H  0.20011797  0.02063528  0.26258628     0.18800
H91         H  0.17890249  0.46148861  0.31132057     0.18700
H92         H  0.32029605  0.03860262  0.18836465     0.14600
C93         C  0.24570003  0.01946713  0.02557159     0.30000
C94         C  0.21161421  0.48976876  0.01159111    -0.36300
C95         C  0.21703468  0.47088287  0.48557235     0.16000
C96         C  0.25349611  0.48059309  0.47411005     0.21800
C97         C  0.28758229  0.01029157  0.48809044    -0.34400
C98         C  0.28216161  0.02917723  0.01410951     0.15900
O99         O  0.24740949  0.04083603  0.05015012    -0.26500
C100        C  0.28543863  0.06457368  0.05449460     0.05700
C101        C  0.30851025  0.05867515  0.03276144    -0.31300
O102        O  0.25178651  0.45922482  0.44953090    -0.23200
C103        C  0.21375716  0.43548729  0.44518641    -0.03200
C104        C  0.19068608  0.44138553  0.46692016    -0.17600
H105        H  0.18290097  0.48193943  0.02039568     0.20400
H106        H  0.31629686  0.01812143  0.47928519     0.18800
H107        H  0.34001302  0.07384070  0.03103656     0.18700
H108        H  0.15918219  0.42622047  0.46864473     0.14600
C109        C  0.25065960  0.28050201  0.48259675     0.30000
C110        C  0.27705978  0.28981513  0.00769860    -0.36300
C111        C  0.27484025  0.25795968  0.02445599     0.16000
C112        C  0.24853585  0.21955613  0.01705391     0.21800
C113        C  0.22213529  0.21024264  0.49195181    -0.34400
C114        C  0.22435533  0.24209863  0.47519430     0.15900
O115        O  0.24754063  0.30563729  0.46379019    -0.26500
C116        C  0.21891550  0.28298473  0.44406965     0.05700
C117        C  0.20342204  0.24322601  0.45004507    -0.31300
O118        O  0.25165464  0.19442145  0.03586175    -0.23200
C119        C  0.28027977  0.21707523  0.05558237    -0.03200
C120        C  0.29577269  0.25683288  0.04960524    -0.17600
H121        H  0.29784659  0.31977244  0.01374887     0.20400
H122        H  0.20134880  0.18028597  0.48590180     0.18800
H123        H  0.18007858  0.21876918  0.43767326     0.18700
H124        H  0.31911864  0.28129378  0.06197895     0.14600
C125        C  0.28005959  0.25097793  0.23287024     0.30000
C126        C  0.28921992  0.27761954  0.25780417    -0.36300
C127        C  0.25738479  0.27553515  0.27427662     0.16000
C128        C  0.21913759  0.24912343  0.26677335     0.21800
C129        C  0.20997720  0.22248235  0.24183910    -0.34400
C130        C  0.24181237  0.22456653  0.22536690     0.15900
O131        O  0.30520424  0.24777739  0.21427760    -0.26500
C132        C  0.28271826  0.21897138  0.19459861     0.05700
C133        C  0.24305649  0.20345311  0.20039515    -0.31300
O134        O  0.19399292  0.25232001  0.28536873    -0.23200
C135        C  0.21647878  0.28112373  0.30504954    -0.03200
C136        C  0.25614049  0.29664470  0.29925115    -0.17600
H137        H  0.31905470  0.29849406  0.26393559     0.20400
H138        H  0.18014276  0.20160697  0.23570872     0.18800
H139        H  0.21872474  0.18004657  0.18796319     0.18700
H140        H  0.28047303  0.32004999  0.31168526     0.14600
O141        O  0.09378905  0.31862637  0.89992435    -0.85100
O142        O  0.16250498  0.38422606  0.91622059    -0.82100
C143        C  0.19869840  0.40644199  0.91962399     0.98400
O144        O  0.22263445  0.40473205  0.90070394    -0.82200
O145        O  0.21931862  0.33511888  0.91578342    -0.84800
C146        C  0.20525964  0.29869521  0.91861355     1.02900
O147        O  0.17999722  0.27536579  0.89927559    -0.77600
O148        O  0.11428501  0.27853687  0.91505874    -0.77800
C149        C  0.09201179  0.29262779  0.91862089     1.02800
O150        O  0.11432257  0.33634024  0.83414456    -0.85100
O151        O  0.17916651  0.40533994  0.85043488    -0.82200
C152        C  0.20511428  0.40775663  0.83148766     0.98000
O153        O  0.21978461  0.38590347  0.83468335    -0.82200
O154        O  0.22394071  0.32017775  0.84975225    -0.84800
C155        C  0.20071649  0.29470308  0.83047939     1.02900
O156        O  0.16437644  0.28027820  0.83342588    -0.77600
O157        O  0.09464060  0.27595296  0.84910052    -0.77800
C158        C  0.09251129  0.30004635  0.83047578     1.02800
Cr159      Cr  0.13947300  0.35913702  0.87517097     1.93700
Cr160      Cr  0.21741532  0.35946740  0.87521262     1.93200
Cr161      Cr  0.14026858  0.28154421  0.87424137     1.39100
O162        O  0.16572086  0.33339088  0.87485546    -1.22900
O163        O  0.38487027  0.16374343  0.66552830    -0.85100
O164        O  0.32002777  0.09474040  0.64924566    -0.82100
C165        C  0.29408077  0.09232850  0.66819143     0.98400
O166        O  0.27940969  0.11418024  0.66498959    -0.82200
O167        O  0.27525527  0.17990375  0.64990521    -0.84800
C168        C  0.29847994  0.20538413  0.66917419     1.02900
O169        O  0.33482005  0.21980764  0.66622855    -0.77600
O170        O  0.40455529  0.22412736  0.65056074    -0.77800
C171        C  0.40668172  0.20003808  0.66919222     1.02800
O172        O  0.40540591  0.18143990  0.59974666    -0.85100
O173        O  0.33669017  0.11583793  0.58345778    -0.82200
C174        C  0.30049682  0.09362211  0.58005460     0.98400
O175        O  0.27656061  0.09533581  0.59897216    -0.82200
O176        O  0.27987582  0.16494511  0.58387738    -0.84800
C177        C  0.29393509  0.20136825  0.58104151     1.02900
O178        O  0.31919816  0.22470177  0.60037700    -0.77600
O179        O  0.38490786  0.22152344  0.58460036    -0.77800
C180        C  0.40717948  0.20742989  0.58104218     1.02800
Cr181      Cr  0.35972145  0.14093652  0.62450422     1.93700
Cr182      Cr  0.28177938  0.14060665  0.62445424     1.93200
Cr183      Cr  0.35892688  0.21852955  0.62541608     1.39100
O184        O  0.33347383  0.16668286  0.62481118    -1.22900
C185        C  0.01753325  0.27230342  0.97323387     0.30000
C186        C  0.98711851  0.27583050  0.48708123    -0.36300
C187        C  0.46983577  0.25267067  0.51400509     0.16000
C188        C  0.48164311  0.22773100  0.52641876     0.21800
C189        C  0.51205738  0.22420276  0.01257073    -0.34400
C190        C  0.02934054  0.24736314  0.98564683     0.15900
O191        O  0.03787987  0.29134802  0.94803981    -0.26500
C192        C  0.06300990  0.27841519  0.94423575     0.05700
C193        C  0.05905137  0.25097149  0.96692382    -0.31300
O194        O  0.46130087  0.20869270  0.55161683    -0.23200
C195        C  0.43617436  0.22163006  0.55542208    -0.03200
C196        C  0.44013013  0.24906897  0.53273076    -0.17600
H197        H  0.97761929  0.29527121  0.47753847     0.20400
H198        H  0.52155821  0.20476362  0.02211456     0.18800
H199        H  0.07576968  0.23608680  0.96933456     0.18700
H200        H  0.42341546  0.26395717  0.53032111     0.14600
C201        C  0.48070819  0.25433631  0.72386037     0.30000
C202        C  0.51051714  0.28829392  0.73793851    -0.36300
C203        C  0.02880789  0.28246716  0.76420719     0.16000
C204        C  0.01847684  0.24575331  0.77581276     0.21800
C205        C  0.98866756  0.21179612  0.76173512    -0.34400
C206        C  0.47037706  0.21762270  0.73546656     0.15900
O207        O  0.45973612  0.25297687  0.69909884    -0.26500
C208        C  0.43565654  0.21491226  0.69477587     0.05700
C209        C  0.44093899  0.19148833  0.71669747    -0.31300
O210        O  0.03945135  0.24711171  0.80057196    -0.23200
C211        C  0.06353282  0.28517575  0.80489464    -0.03200
C212        C  0.05824886  0.30860120  0.78297513    -0.17600
H213        H  0.51885419  0.31721175  0.72903199     0.20400
H214        H  0.98033113  0.18287732  0.77064115     0.18800
H215        H  0.42533985  0.15988256  0.71851715     0.18700
H216        H  0.07384921  0.34020510  0.78115512     0.14600
C217        C  0.25097204  0.47112542  0.76753590     0.30000
C218        C  0.27776936  0.48824784  0.74264221    -0.36300
C219        C  0.27521447  0.01738245  0.72538998     0.16000
C220        C  0.24822909  0.02897095  0.73215142     0.21800
C221        C  0.22143192  0.01184873  0.75704563    -0.34400
C222        C  0.22398692  0.48271390  0.77429793     0.15900
O223        O  0.24803537  0.44325206  0.78668487    -0.26500
C224        C  0.21884751  0.43701107  0.80598307     0.05700
C225        C  0.20279435  0.46072123  0.79939825    -0.31300
O226        O  0.25116370  0.05684153  0.71299980    -0.23200
C227        C  0.28035057  0.06308027  0.69370082    -0.03200
C228        C  0.29640467  0.03937198  0.70028825    -0.17600
H229        H  0.29908057  0.47946076  0.73710144     0.20400
H230        H  0.20012006  0.02063523  0.76258604     0.18800
H231        H  0.17890325  0.46148823  0.81132010     0.18700
H232        H  0.32029686  0.03860263  0.68836441     0.14600
C233        C  0.24570040  0.01946718  0.52557144     0.30000
C234        C  0.21161406  0.48976872  0.51159108    -0.36300
C235        C  0.21703477  0.47088297  0.98557239     0.16000
C236        C  0.25349631  0.48059318  0.97411004     0.21800
C237        C  0.28758238  0.01029170  0.98809051    -0.34400
C238        C  0.28216214  0.02917737  0.51410938     0.15900
O239        O  0.24740955  0.04083594  0.55015004    -0.26500
C240        C  0.28543878  0.06457378  0.55449453     0.05700
C241        C  0.30851007  0.05867499  0.53276153    -0.31300
O242        O  0.25178665  0.45922489  0.94953090    -0.23200
C243        C  0.21375738  0.43548728  0.94518649    -0.03200
C244        C  0.19068599  0.44138551  0.96692014    -0.17600
H245        H  0.18290162  0.48193949  0.52039545     0.20400
H246        H  0.31629433  0.01812128  0.97928586     0.18800
H247        H  0.34001556  0.07384208  0.53103652     0.18700
H248        H  0.15918391  0.42622083  0.96864490     0.14600
C249        C  0.25065924  0.28050143  0.98259664     0.30000
C250        C  0.27705966  0.28981498  0.50769858    -0.36300
C251        C  0.27484048  0.25796013  0.52445614     0.16000
C252        C  0.24853610  0.21955648  0.51705409     0.21800
C253        C  0.22213545  0.21024280  0.99195177    -0.34400
C254        C  0.22435474  0.24209802  0.97519406     0.15900
O255        O  0.24754049  0.30563705  0.96379028    -0.26500
C256        C  0.21891523  0.28298439  0.94406951     0.05700
C257        C  0.20342230  0.24322634  0.95004516    -0.31300
O258        O  0.25165464  0.19442148  0.53586181    -0.23200
C259        C  0.28027985  0.21707541  0.55558243    -0.03200
C260        C  0.29577269  0.25683302  0.54960532    -0.17600
H261        H  0.29784945  0.31977671  0.51374968     0.20400
H262        H  0.20134580  0.18028214  0.98590129     0.18800
H263        H  0.18007508  0.21876570  0.93767112     0.18700
H264        H  0.31911916  0.28129449  0.56197920     0.14600
C265        C  0.28005992  0.25097824  0.73287019     0.30000
C266        C  0.28921987  0.27761948  0.75780409    -0.36300
C267        C  0.25738506  0.27553536  0.77427652     0.16000
C268        C  0.21913775  0.24912353  0.76677335     0.21800
C269        C  0.20997730  0.22248251  0.74183895    -0.34400
C270        C  0.24181265  0.22456681  0.72536703     0.15900
O271        O  0.30520433  0.24777737  0.71427758    -0.26500
C272        C  0.28271842  0.21897146  0.69459871     0.05700
C273        C  0.24305644  0.20345311  0.70039508    -0.31300
O274        O  0.19399297  0.25232003  0.78536868    -0.23200
C275        C  0.21647882  0.28112370  0.80504958    -0.03200
C276        C  0.25614051  0.29664476  0.79925117    -0.17600
H277        H  0.31905722  0.29849588  0.76393580     0.20400
H278        H  0.18014365  0.20160711  0.73570904     0.18800
H279        H  0.21872663  0.18004863  0.68796395     0.18700
H280        H  0.28047260  0.32004916  0.81168552     0.14600
O281        O  0.09378896  0.81862629  0.39992431    -0.85100
O282        O  0.16250493  0.88422594  0.41622058    -0.82100
C283        C  0.19869835  0.90644186  0.41962398     0.98400
O284        O  0.22263435  0.90473193  0.40070389    -0.82200
O285        O  0.21931864  0.83511887  0.41578339    -0.84800
C286        C  0.20525961  0.79869512  0.41861353     1.02900
O287        O  0.17999725  0.77536574  0.39927560    -0.77600
O288        O  0.11428503  0.77853690  0.41505874    -0.77800
C289        C  0.09201177  0.79262779  0.41862088     1.02800
O290        O  0.11432252  0.83634019  0.33414451    -0.85100
O291        O  0.17916648  0.90533986  0.35043490    -0.82200
C292        C  0.20511414  0.90775648  0.33148760     0.98000
O293        O  0.21978454  0.88590345  0.33468332    -0.82200
O294        O  0.22394066  0.82017764  0.34975221    -0.84800
C295        C  0.20071645  0.79470307  0.33047937     1.02900
O296        O  0.16437634  0.78027821  0.33342588    -0.77600
O297        O  0.09464059  0.77595293  0.34910048    -0.77800
C298        C  0.09251126  0.80004633  0.33047574     1.02800
Cr299      Cr  0.13947299  0.85913702  0.37517094     1.93700
Cr300      Cr  0.21741535  0.85946741  0.37521258     1.93200
Cr301      Cr  0.14026860  0.78154424  0.37424136     1.39100
O302        O  0.16572091  0.83339092  0.37485543    -1.22900
O303        O  0.38487028  0.66374341  0.16552835    -0.85100
O304        O  0.32002784  0.59474039  0.14924559    -0.82100
C305        C  0.29408088  0.59232835  0.16819137     0.98400
O306        O  0.27940971  0.61418009  0.16498958    -0.82200
O307        O  0.27525525  0.67990367  0.14990521    -0.84800
C308        C  0.29847991  0.70538409  0.16917421     1.02900
O309        O  0.33482001  0.71980766  0.16622852    -0.77600
O310        O  0.40455517  0.72412721  0.15056075    -0.77800
C311        C  0.40668165  0.70003793  0.16919229     1.02800
O312        O  0.40540600  0.68143998  0.09974666    -0.85100
O313        O  0.33669025  0.61583798  0.08345772    -0.82200
C314        C  0.30049684  0.59362201  0.08005465     0.98400
O315        O  0.27656060  0.59533574  0.09897213    -0.82200
O316        O  0.27987581  0.66494509  0.08387735    -0.84800
C317        C  0.29393517  0.70136832  0.08104148     1.02900
O318        O  0.31919822  0.72470187  0.10037695    -0.77600
O319        O  0.38490788  0.72152345  0.08460039    -0.77800
C320        C  0.40717958  0.70742996  0.08104223     1.02800
Cr321      Cr  0.35972151  0.64093661  0.12450420     1.93700
Cr322      Cr  0.28177942  0.64060665  0.12445423     1.93200
Cr323      Cr  0.35892690  0.71852961  0.12541609     1.39100
O324        O  0.33347387  0.66668295  0.12481117    -1.22900
C325        C  0.01753320  0.77230345  0.47323384     0.30000
C326        C  0.98711846  0.77583037  0.98708126    -0.36300
C327        C  0.46983583  0.75267081  0.01400505     0.16000
C328        C  0.48164311  0.72773095  0.02641875     0.21800
C329        C  0.51205726  0.72420284  0.51257056    -0.34400
C330        C  0.02934042  0.74736326  0.48564677     0.15900
O331        O  0.03787990  0.79134806  0.44803982    -0.26500
C332        C  0.06300991  0.77841530  0.44423574     0.05700
C333        C  0.05905136  0.75097144  0.46692372    -0.31300
O334        O  0.46130091  0.70869272  0.05161685    -0.23200
C335        C  0.43617439  0.72163010  0.05542209    -0.03200
C336        C  0.44013017  0.74906894  0.03273074    -0.17600
H337        H  0.97761900  0.79527263  0.97753824     0.20400
H338        H  0.52155878  0.70476250  0.52211512     0.18800
H339        H  0.07576917  0.73608774  0.46933435     0.18700
H340        H  0.42341541  0.76395738  0.03032109     0.14600
C341        C  0.48070820  0.75433624  0.22386035     0.30000
C342        C  0.51051712  0.78829388  0.23793845    -0.36300
C343        C  0.02880779  0.78246706  0.26420717     0.16000
C344        C  0.01847687  0.74575333  0.27581271     0.21800
C345        C  0.98866757  0.71179603  0.26173510    -0.34400
C346        C  0.47037711  0.71762267  0.23546660     0.15900
O347        O  0.45973616  0.75297686  0.19909883    -0.26500
C348        C  0.43565662  0.71491237  0.19477586     0.05700
C349        C  0.44093888  0.69148805  0.21669749    -0.31300
O350        O  0.03945140  0.74711177  0.30057191    -0.23200
C351        C  0.06353277  0.78517576  0.30489463    -0.03200
C352        C  0.05824880  0.80860118  0.28297509    -0.17600
H353        H  0.51885402  0.81721133  0.22903201     0.20400
H354        H  0.98033130  0.68287774  0.27064104     0.18800
H355        H  0.42534066  0.65988405  0.21851691     0.18700
H356        H  0.07384863  0.84020477  0.28115528     0.14600
C357        C  0.25097202  0.97112537  0.26753594     0.30000
C358        C  0.27776928  0.98824796  0.24264224    -0.36300
C359        C  0.27521449  0.51738253  0.22539000     0.16000
C360        C  0.24822878  0.52897104  0.23215151     0.21800
C361        C  0.22143226  0.51184869  0.25704565    -0.34400
C362        C  0.22398657  0.98271389  0.27429805     0.15900
O363        O  0.24803522  0.94325205  0.28668501    -0.26500
C364        C  0.21884718  0.93701107  0.30598324     0.05700
C365        C  0.20279453  0.96072124  0.29939814    -0.31300
O366        O  0.25116372  0.55684158  0.21299977    -0.23200
C367        C  0.28035057  0.56308031  0.19370085    -0.03200
C368        C  0.29640458  0.53937195  0.20028825    -0.17600
H369        H  0.29908104  0.97946008  0.23710086     0.20400
H370        H  0.20011692  0.52063637  0.26258682     0.18800
H371        H  0.17890017  0.96148848  0.31132147     0.18700
H372        H  0.32029683  0.53860249  0.18836431     0.14600
C373        C  0.24570048  0.51946729  0.02557146     0.30000
C374        C  0.21161413  0.98976873  0.01159110    -0.36300
C375        C  0.21703444  0.97088275  0.48557232     0.16000
C376        C  0.25349611  0.98059310  0.47411004     0.21800
C377        C  0.28758255  0.51029165  0.48809041    -0.34400
C378        C  0.28216230  0.52917742  0.01410945     0.15900
O379        O  0.24740962  0.54083597  0.05015005    -0.26500
C380        C  0.28543895  0.56457377  0.05449456     0.05700
C381        C  0.30851011  0.55867502  0.03276150    -0.31300
O382        O  0.25178649  0.95922482  0.44953093    -0.23200
C383        C  0.21375707  0.93548723  0.44518643    -0.03200
C384        C  0.19068614  0.94138552  0.46692009    -0.17600
H385        H  0.18289834  0.98193871  0.02039635     0.20400
H386        H  0.31629592  0.51812123  0.47928551     0.18800
H387        H  0.34001682  0.57384232  0.03103650     0.18700
H388        H  0.15918054  0.92621937  0.46864474     0.14600
C389        C  0.25065937  0.78050163  0.48259673     0.30000
C390        C  0.27705977  0.78981516  0.00769863    -0.36300
C391        C  0.27484020  0.75795971  0.02445605     0.16000
C392        C  0.24853580  0.71955613  0.01705399     0.21800
C393        C  0.22213542  0.71024274  0.49195176    -0.34400
C394        C  0.22435510  0.74209849  0.47519423     0.15900
O395        O  0.24754060  0.80563720  0.46379030    -0.26500
C396        C  0.21891544  0.78298465  0.44406960     0.05700
C397        C  0.20342219  0.74322621  0.45004509    -0.31300
O398        O  0.25165461  0.69442142  0.03586180    -0.23200
C399        C  0.28027979  0.71707529  0.05558236    -0.03200
C400        C  0.29577268  0.75683297  0.04960525    -0.17600
H401        H  0.29784664  0.81977250  0.01374888     0.20400
H402        H  0.20134802  0.68028529  0.48590185     0.18800
H403        H  0.18007702  0.71876784  0.43767253     0.18700
H404        H  0.31911871  0.78129396  0.06197892     0.14600
C405        C  0.28005988  0.75097821  0.23287028     0.30000
C406        C  0.28921956  0.77761936  0.25780408    -0.36300
C407        C  0.25738498  0.77553526  0.27427658     0.16000
C408        C  0.21913757  0.74912343  0.26677322     0.21800
C409        C  0.20997752  0.72248253  0.24183903    -0.34400
C410        C  0.24181239  0.72456654  0.22536689     0.15900
O411        O  0.30520423  0.74777736  0.21427766    -0.26500
C412        C  0.28271823  0.71897136  0.19459867     0.05700
C413        C  0.24305661  0.70345326  0.20039523    -0.31300
O414        O  0.19399295  0.75231997  0.28536870    -0.23200
C415        C  0.21647867  0.78112366  0.30504953    -0.03200
C416        C  0.25614042  0.79664478  0.29925115    -0.17600
H417        H  0.31905797  0.79849654  0.26393624     0.20400
H418        H  0.18014169  0.70160608  0.23570820     0.18800
H419        H  0.21872414  0.68004604  0.18796292     0.18700
H420        H  0.28047216  0.82004906  0.31168521     0.14600
O421        O  0.09378912  0.81862636  0.89992437    -0.85100
O422        O  0.16250515  0.88422609  0.91622061    -0.82100
C423        C  0.19869855  0.90644204  0.91962394     0.98400
O424        O  0.22263454  0.90473199  0.90070390    -0.82200
O425        O  0.21931874  0.83511890  0.91578340    -0.84800
C426        C  0.20525976  0.79869518  0.91861354     1.02900
O427        O  0.17999732  0.77536575  0.89927567    -0.77600
O428        O  0.11428508  0.77853677  0.91505869    -0.77800
C429        C  0.09201191  0.79262778  0.91862091     1.02800
O430        O  0.11432270  0.83634033  0.83414461    -0.85100
O431        O  0.17916656  0.90533992  0.85043489    -0.82200
C432        C  0.20511435  0.90775663  0.83148764     0.98000
O433        O  0.21978467  0.88590349  0.83468329    -0.82200
O434        O  0.22394084  0.82017774  0.84975227    -0.84800
C435        C  0.20071678  0.79470327  0.83047939     1.02900
O436        O  0.16437663  0.78027829  0.83342589    -0.77600
O437        O  0.09464063  0.77595292  0.84910043    -0.77800
C438        C  0.09251140  0.80004639  0.83047575     1.02800
Cr439      Cr  0.13947314  0.85913705  0.87517101     1.93700
Cr440      Cr  0.21741545  0.85946741  0.87521258     1.93200
Cr441      Cr  0.14026872  0.78154420  0.87424135     1.39100
O442        O  0.16572100  0.83339088  0.87485549    -1.22900
O443        O  0.38487021  0.66374340  0.66552840    -0.85100
O444        O  0.32002772  0.59474030  0.64924560    -0.82100
C445        C  0.29408076  0.59232847  0.66819140     0.98400
O446        O  0.27940965  0.61418024  0.66498960    -0.82200
O447        O  0.27525530  0.67990378  0.64990521    -0.84800
C448        C  0.29848007  0.70538416  0.66917423     1.02900
O449        O  0.33482012  0.71980761  0.66622856    -0.77600
O450        O  0.40455534  0.72412730  0.65056069    -0.77800
C451        C  0.40668181  0.70003804  0.66919218     1.02800
O452        O  0.40540581  0.68143985  0.59974672    -0.85100
O453        O  0.33669028  0.61583804  0.58345776    -0.82200
C454        C  0.30049690  0.59362216  0.58005460     0.98400
O455        O  0.27656058  0.59533580  0.59897214    -0.82200
O456        O  0.27987577  0.66494507  0.58387747    -0.84800
C457        C  0.29393521  0.70136824  0.58104147     1.02900
O458        O  0.31919820  0.72470175  0.60037701    -0.77600
O459        O  0.38490787  0.72152339  0.58460029    -0.77800
C460        C  0.40717950  0.70742990  0.58104219     1.02800
Cr461      Cr  0.35972146  0.64093650  0.62450425     1.93700
Cr462      Cr  0.28177937  0.64060664  0.62445428     1.93200
Cr463      Cr  0.35892690  0.71852952  0.62541607     1.39100
O464        O  0.33347383  0.66668282  0.62481117    -1.22900
C465        C  0.01753316  0.77230343  0.97323387     0.30000
C466        C  0.98711848  0.77583051  0.48708125    -0.36300
C467        C  0.46983586  0.75267076  0.51400498     0.16000
C468        C  0.48164320  0.72773087  0.52641876     0.21800
C469        C  0.51205739  0.72420270  0.01257070    -0.34400
C470        C  0.02934045  0.74736309  0.98564688     0.15900
O471        O  0.03787989  0.79134812  0.94803982    -0.26500
C472        C  0.06300980  0.77841526  0.94423569     0.05700
C473        C  0.05905143  0.75097144  0.96692383    -0.31300
O474        O  0.46130086  0.70869264  0.55161678    -0.23200
C475        C  0.43617442  0.72162992  0.55542207    -0.03200
C476        C  0.44013010  0.74906897  0.53273074    -0.17600
H477        H  0.97761907  0.79527274  0.47753811     0.20400
H478        H  0.52155803  0.70476385  0.02211450     0.18800
H479        H  0.07576821  0.73608769  0.96933433     0.18700
H480        H  0.42341613  0.76395623  0.53032120     0.14600
C481        C  0.48070823  0.75433620  0.72386035     0.30000
C482        C  0.51051717  0.78829402  0.73793844    -0.36300
C483        C  0.02880793  0.78246723  0.76420715     0.16000
C484        C  0.01847679  0.74575343  0.77581275     0.21800
C485        C  0.98866761  0.71179612  0.76173508    -0.34400
C486        C  0.47037702  0.71762269  0.73546659     0.15900
O487        O  0.45973617  0.75297682  0.69909880    -0.26500
C488        C  0.43565654  0.71491225  0.69477587     0.05700
C489        C  0.44093894  0.69148829  0.71669748    -0.31300
O490        O  0.03945141  0.74711178  0.80057190    -0.23200
C491        C  0.06353278  0.78517584  0.80489468    -0.03200
C492        C  0.05824878  0.80860104  0.78297514    -0.17600
H493        H  0.51885412  0.81721085  0.72903217     0.20400
H494        H  0.98033130  0.68287793  0.77064097     0.18800
H495        H  0.42533961  0.65988283  0.71851722     0.18700
H496        H  0.07384945  0.84020575  0.78115517     0.14600
C497        C  0.25097208  0.97112542  0.76753596     0.30000
C498        C  0.27776931  0.98824787  0.74264225    -0.36300
C499        C  0.27521446  0.51738248  0.72539002     0.16000
C500        C  0.24822899  0.52897083  0.73215143     0.21800
C501        C  0.22143188  0.51184871  0.75704574    -0.34400
C502        C  0.22398691  0.98271392  0.77429788     0.15900
O503        O  0.24803534  0.94325204  0.78668494    -0.26500
C504        C  0.21884743  0.93701109  0.80598310     0.05700
C505        C  0.20279439  0.96072126  0.79939816    -0.31300
O506        O  0.25116366  0.55684149  0.71299983    -0.23200
C507        C  0.28035047  0.56308023  0.69370082    -0.03200
C508        C  0.29640460  0.53937194  0.70028822    -0.17600
H509        H  0.29908102  0.97946073  0.73710149     0.20400
H510        H  0.20011997  0.52063505  0.76258611     0.18800
H511        H  0.17890276  0.96148825  0.81132019     0.18700
H512        H  0.32029658  0.53860257  0.68836442     0.14600
C513        C  0.24570048  0.51946719  0.52557144     0.30000
C514        C  0.21161416  0.98976874  0.51159105    -0.36300
C515        C  0.21703447  0.97088290  0.98557249     0.16000
C516        C  0.25349591  0.98059313  0.97411015     0.21800
C517        C  0.28758224  0.51029160  0.98809055    -0.34400
C518        C  0.28216201  0.52917733  0.51410937     0.15900
O519        O  0.24740954  0.54083596  0.55015004    -0.26500
C520        C  0.28543871  0.56457379  0.55449452     0.05700
C521        C  0.30851032  0.55867509  0.53276150    -0.31300
O522        O  0.25178657  0.95922491  0.94953097    -0.23200
C523        C  0.21375732  0.93548731  0.94518646    -0.03200
C524        C  0.19068606  0.94138550  0.96692014    -0.17600
H525        H  0.18290069  0.98193920  0.52039576     0.20400
H526        H  0.31629790  0.51812199  0.97928482     0.18800
H527        H  0.34001364  0.57384093  0.53103662     0.18700
H528        H  0.15918347  0.92622050  0.96864485     0.14600
C529        C  0.25065928  0.78050144  0.98259665     0.30000
C530        C  0.27705979  0.78981513  0.50769871    -0.36300
C531        C  0.27484041  0.75795984  0.52445610     0.16000
C532        C  0.24853608  0.71955645  0.51705406     0.21800
C533        C  0.22213539  0.71024275  0.99195181    -0.34400
C534        C  0.22435486  0.74209811  0.97519415     0.15900
O535        O  0.24754048  0.80563706  0.96379030    -0.26500
C536        C  0.21891542  0.78298447  0.94406952     0.05700
C537        C  0.20342215  0.74322617  0.95004514    -0.31300
O538        O  0.25165470  0.69442150  0.53586172    -0.23200
C539        C  0.28027990  0.71707540  0.55558237    -0.03200
C540        C  0.29577272  0.75683301  0.54960527    -0.17600
H541        H  0.29784705  0.81977317  0.51374925     0.20400
H542        H  0.20134601  0.68028245  0.98590137     0.18800
H543        H  0.18007673  0.71876709  0.93767177     0.18700
H544        H  0.31911929  0.78129464  0.56197921     0.14600
C545        C  0.28005963  0.75097806  0.73287018     0.30000
C546        C  0.28921991  0.77761952  0.75780416    -0.36300
C547        C  0.25738477  0.77553510  0.77427654     0.16000
C548        C  0.21913735  0.74912325  0.76677329     0.21800
C549        C  0.20997743  0.72248256  0.74183909    -0.34400
C550        C  0.24181227  0.72456652  0.72536701     0.15900
O551        O  0.30520430  0.74777737  0.71427762    -0.26500
C552        C  0.28271842  0.71897144  0.69459869     0.05700
C553        C  0.24305651  0.70345313  0.70039507    -0.31300
O554        O  0.19399293  0.75231996  0.78536879    -0.23200
C555        C  0.21647876  0.78112367  0.80504954    -0.03200
C556        C  0.25614058  0.79664477  0.79925122    -0.17600
H557        H  0.31905493  0.79849424  0.76393555     0.20400
H558        H  0.18013985  0.70160474  0.73570828     0.18800
H559        H  0.21872647  0.68004847  0.68796379     0.18700
H560        H  0.28047207  0.82004876  0.81168516     0.14600
O561        O  0.59378898  0.31862624  0.39992432    -0.85100
O562        O  0.66250493  0.38422603  0.41622059    -0.82100
C563        C  0.69869835  0.40644190  0.41962397     0.98400
O564        O  0.72263433  0.40473193  0.40070386    -0.82200
O565        O  0.71931870  0.33511887  0.41578342    -0.84800
C566        C  0.70525963  0.29869511  0.41861353     1.02900
O567        O  0.67999726  0.27536578  0.39927559    -0.77600
O568        O  0.61428511  0.27853688  0.41505873    -0.77800
C569        C  0.59201186  0.29262778  0.41862091     1.02800
O570        O  0.61432258  0.33634021  0.33414449    -0.85100
O571        O  0.67916644  0.40533994  0.35043489    -0.82200
C572        C  0.70511409  0.40775656  0.33148760     0.98000
O573        O  0.71978447  0.38590344  0.33468326    -0.82200
O574        O  0.72394077  0.32017771  0.34975221    -0.84800
C575        C  0.70071662  0.29470315  0.33047939     1.02900
O576        O  0.66437647  0.28027830  0.33342586    -0.77600
O577        O  0.59464061  0.27595296  0.34910049    -0.77800
C578        C  0.59251130  0.30004636  0.33047573     1.02800
Cr579      Cr  0.63947296  0.35913704  0.37517096     1.93700
Cr580      Cr  0.71741533  0.35946741  0.37521258     1.93200
Cr581      Cr  0.64026864  0.28154428  0.37424136     1.39100
O582        O  0.66572088  0.33339095  0.37485548    -1.22900
O583        O  0.88487035  0.16374350  0.16552836    -0.85100
O584        O  0.82002782  0.09474039  0.14924562    -0.82100
C585        C  0.79408082  0.09232840  0.16819138     0.98400
O586        O  0.77940970  0.11418022  0.16498962    -0.82200
O587        O  0.77525525  0.17990372  0.14990515    -0.84800
C588        C  0.79847991  0.20538405  0.16917421     1.02900
O589        O  0.83482005  0.21980765  0.16622856    -0.77600
O590        O  0.90455526  0.22412731  0.15056072    -0.77800
C591        C  0.90668175  0.20003811  0.16919227     1.02800
O592        O  0.90540594  0.18144009  0.09974666    -0.85100
O593        O  0.83669035  0.11583808  0.08345767    -0.82200
C594        C  0.80049701  0.09362206  0.08005463     0.98400
O595        O  0.77656069  0.09533580  0.09897212    -0.82200
O596        O  0.77987584  0.16494509  0.08387735    -0.84800
C597        C  0.79393514  0.20136825  0.08104147     1.02900
O598        O  0.81919817  0.22470176  0.10037697    -0.77600
O599        O  0.88490782  0.22152350  0.08460040    -0.77800
C600        C  0.90717947  0.20743001  0.08104218     1.02800
Cr601      Cr  0.85972160  0.14093663  0.12450419     1.93700
Cr602      Cr  0.78177952  0.14060671  0.12445422     1.93200
Cr603      Cr  0.85892693  0.21852959  0.12541610     1.39100
O604        O  0.83347398  0.16668294  0.12481117    -1.22900
C605        C  0.51753322  0.27230326  0.47323386     0.30000
C606        C  0.48711846  0.27583059  0.98708111    -0.36300
C607        C  0.96983567  0.25267093  0.01400507     0.16000
C608        C  0.98164300  0.22773095  0.02641878     0.21800
C609        C  0.01205730  0.22420268  0.51257066    -0.34400
C610        C  0.52934060  0.24736314  0.48564672     0.15900
O611        O  0.53787990  0.29134801  0.44803985    -0.26500
C612        C  0.56300996  0.27841517  0.44423574     0.05700
C613        C  0.55905125  0.25097150  0.46692368    -0.31300
O614        O  0.96130080  0.20869281  0.05161683    -0.23200
C615        C  0.93617423  0.22163026  0.05542200    -0.03200
C616        C  0.94013017  0.24906895  0.03273067    -0.17600
H617        H  0.47762048  0.29527056  0.97753925     0.20400
H618        H  0.02155785  0.20476378  0.52211440     0.18800
H619        H  0.57577012  0.23608618  0.46933441     0.18700
H620        H  0.92341390  0.26395862  0.03032076     0.14600
C621        C  0.98070825  0.25433624  0.22386033     0.30000
C622        C  0.01051714  0.28829394  0.23793840    -0.36300
C623        C  0.52880783  0.28246712  0.26420717     0.16000
C624        C  0.51847689  0.24575340  0.27581272     0.21800
C625        C  0.48866763  0.21179606  0.26173511    -0.34400
C626        C  0.97037713  0.21762269  0.23546657     0.15900
O627        O  0.95973621  0.25297690  0.19909881    -0.26500
C628        C  0.93565665  0.21491236  0.19477587     0.05700
C629        C  0.94093893  0.19148811  0.21669749    -0.31300
O630        O  0.53945143  0.24711181  0.30057192    -0.23200
C631        C  0.56353281  0.28517579  0.30489462    -0.03200
C632        C  0.55824885  0.30860122  0.28297507    -0.17600
H633        H  0.01885401  0.31721114  0.22903198     0.20400
H634        H  0.48033138  0.18287799  0.27064103     0.18800
H635        H  0.92534053  0.15988373  0.21851694     0.18700
H636        H  0.57384868  0.34020482  0.28115528     0.14600
C637        C  0.75097207  0.47112545  0.26753596     0.30000
C638        C  0.77776936  0.48824794  0.24264215    -0.36300
C639        C  0.77521456  0.01738235  0.22539009     0.16000
C640        C  0.74822881  0.02897091  0.23215153     0.21800
C641        C  0.72143219  0.01184863  0.25704568    -0.34400
C642        C  0.72398671  0.48271384  0.27429803     0.15900
O643        O  0.74803513  0.44325200  0.28668492    -0.26500
C644        C  0.71884718  0.43701112  0.30598320     0.05700
C645        C  0.70279447  0.46072128  0.29939811    -0.31300
O646        O  0.75116357  0.05684158  0.21299988    -0.23200
C647        C  0.78035028  0.06308038  0.19370097    -0.03200
C648        C  0.79640477  0.03937203  0.20028812    -0.17600
H649        H  0.79908083  0.47946060  0.23710094     0.20400
H650        H  0.70011775  0.02063544  0.26258634     0.18800
H651        H  0.67890040  0.46148861  0.31132141     0.18700
H652        H  0.82029397  0.03860263  0.18836548     0.14600
C653        C  0.74570048  0.01946726  0.02557147     0.30000
C654        C  0.71161428  0.48976876  0.01159101    -0.36300
C655        C  0.71703466  0.47088288  0.48557234     0.16000
C656        C  0.75349611  0.48059308  0.47411005     0.21800
C657        C  0.78758244  0.01029162  0.48809042    -0.34400
C658        C  0.78216234  0.02917745  0.01410946     0.15900
O659        O  0.74740965  0.04083599  0.05015004    -0.26500
C660        C  0.78543894  0.06457381  0.05449454     0.05700
C661        C  0.80851018  0.05867510  0.03276149    -0.31300
O662        O  0.75178649  0.45922481  0.44953089    -0.23200
C663        C  0.71375715  0.43548731  0.44518640    -0.03200
C664        C  0.69068608  0.44138557  0.46692016    -0.17600
H665        H  0.68289778  0.48193857  0.02039647     0.20400
H666        H  0.81629653  0.01812134  0.47928528     0.18800
H667        H  0.84001655  0.07384228  0.03103654     0.18700
H668        H  0.65918219  0.42622054  0.46864476     0.14600
C669        C  0.75065962  0.28050196  0.48259679     0.30000
C670        C  0.77705979  0.28981512  0.00769866    -0.36300
C671        C  0.77484020  0.25795966  0.02445605     0.16000
C672        C  0.74853580  0.21955611  0.01705397     0.21800
C673        C  0.72213543  0.21024273  0.49195176    -0.34400
C674        C  0.72435513  0.24209847  0.47519425     0.15900
O675        O  0.74754060  0.30563723  0.46379025    -0.26500
C676        C  0.71891544  0.28298461  0.44406959     0.05700
C677        C  0.70342215  0.24322610  0.45004507    -0.31300
O678        O  0.75165461  0.19442141  0.03586177    -0.23200
C679        C  0.78027978  0.21707523  0.05558235    -0.03200
C680        C  0.79577265  0.25683284  0.04960526    -0.17600
H681        H  0.79784669  0.31977247  0.01374893     0.20400
H682        H  0.70134787  0.18028496  0.48590162     0.18800
H683        H  0.68007705  0.21876783  0.43767257     0.18700
H684        H  0.81911869  0.28129380  0.06197897     0.14600
C685        C  0.78005938  0.25097777  0.23287021     0.30000
C686        C  0.78921996  0.27761961  0.25780422    -0.36300
C687        C  0.75738450  0.27553499  0.27427657     0.16000
C688        C  0.71913742  0.24912333  0.26677330     0.21800
C689        C  0.70997726  0.22248233  0.24183901    -0.34400
C690        C  0.74181232  0.22456648  0.22536683     0.15900
O691        O  0.80520416  0.24777733  0.21427766    -0.26500
C692        C  0.78271821  0.21897133  0.19459864     0.05700
C693        C  0.74305653  0.20345312  0.20039516    -0.31300
O694        O  0.69399284  0.25231999  0.28536872    -0.23200
C695        C  0.71647873  0.28112372  0.30504953    -0.03200
C696        C  0.75614044  0.29664468  0.29925112    -0.17600
H697        H  0.81905231  0.29849257  0.26393518     0.20400
H698        H  0.68014207  0.20160643  0.23570823     0.18800
H699        H  0.71872463  0.18004642  0.18796302     0.18700
H700        H  0.78047296  0.32004992  0.31168521     0.14600
O701        O  0.59378914  0.31862636  0.89992438    -0.85100
O702        O  0.66250510  0.38422607  0.91622057    -0.82100
C703        C  0.69869852  0.40644198  0.91962398     0.98400
O704        O  0.72263459  0.40473205  0.90070393    -0.82200
O705        O  0.71931878  0.33511892  0.91578340    -0.84800
C706        C  0.70525980  0.29869521  0.91861355     1.02900
O707        O  0.67999736  0.27536578  0.89927568    -0.77600
O708        O  0.61428514  0.27853680  0.91505870    -0.77800
C709        C  0.59201191  0.29262777  0.91862089     1.02800
O710        O  0.61432267  0.33634023  0.83414461    -0.85100
O711        O  0.67916657  0.40533995  0.85043490    -0.82200
C712        C  0.70511430  0.40775663  0.83148765     0.98000
O713        O  0.71978467  0.38590349  0.83468332    -0.82200
O714        O  0.72394079  0.32017773  0.84975220    -0.84800
C715        C  0.70071667  0.29470308  0.83047942     1.02900
O716        O  0.66437658  0.28027823  0.83342589    -0.77600
O717        O  0.59464070  0.27595295  0.84910046    -0.77800
C718        C  0.59251140  0.30004633  0.83047575     1.02800
Cr719      Cr  0.63947312  0.35913701  0.87517100     1.93700
Cr720      Cr  0.71741547  0.35946742  0.87521258     1.93200
Cr721      Cr  0.64026875  0.28154421  0.87424136     1.39100
O722        O  0.66572102  0.33339088  0.87485548    -1.22900
O723        O  0.88487025  0.16374343  0.66552837    -0.85100
O724        O  0.82002776  0.09474034  0.64924562    -0.82100
C725        C  0.79408081  0.09232850  0.66819142     0.98400
O726        O  0.77940968  0.11418028  0.66498961    -0.82200
O727        O  0.77525534  0.17990383  0.64990522    -0.84800
C728        C  0.79848010  0.20538419  0.66917423     1.02900
O729        O  0.83482016  0.21980767  0.66622856    -0.77600
O730        O  0.90455539  0.22412734  0.65056069    -0.77800
C731        C  0.90668184  0.20003805  0.66919218     1.02800
O732        O  0.90540587  0.18143988  0.59974668    -0.85100
O733        O  0.83669027  0.11583802  0.58345775    -0.82200
C734        C  0.80049689  0.09362214  0.58005460     0.98400
O735        O  0.77656059  0.09533580  0.59897213    -0.82200
O736        O  0.77987582  0.16494512  0.58387747    -0.84800
C737        C  0.79393526  0.20136827  0.58104148     1.02900
O738        O  0.81919826  0.22470179  0.60037701    -0.77600
O739        O  0.88490792  0.22152340  0.58460034    -0.77800
C740        C  0.90717953  0.20742985  0.58104218     1.02800
Cr741      Cr  0.85972149  0.14093652  0.62450423     1.93700
Cr742      Cr  0.78177941  0.14060668  0.62445428     1.93200
Cr743      Cr  0.85892695  0.21852955  0.62541608     1.39100
O744        O  0.83347387  0.16668285  0.62481117    -1.22900
C745        C  0.51753343  0.27230328  0.97323392     0.30000
C746        C  0.48711846  0.27583052  0.48708125    -0.36300
C747        C  0.96983577  0.25267067  0.51400505     0.16000
C748        C  0.98164311  0.22773100  0.52641875     0.21800
C749        C  0.01205733  0.22420283  0.01257072    -0.34400
C750        C  0.52934062  0.24736309  0.98564679     0.15900
O751        O  0.53787990  0.29134802  0.94803981    -0.26500
C752        C  0.56300998  0.27841518  0.94423574     0.05700
C753        C  0.55905142  0.25097144  0.96692378    -0.31300
O754        O  0.96130088  0.20869270  0.55161680    -0.23200
C755        C  0.93617438  0.22163004  0.55542205    -0.03200
C756        C  0.94013013  0.24906895  0.53273072    -0.17600
H757        H  0.47761930  0.29527109  0.47753860     0.20400
H758        H  0.02155828  0.20476349  0.02211468     0.18800
H759        H  0.57576976  0.23608664  0.96933454     0.18700
H760        H  0.92341542  0.26395720  0.53032107     0.14600
C761        C  0.98070825  0.25433629  0.72386035     0.30000
C762        C  0.01051719  0.28829393  0.73793849    -0.36300
C763        C  0.52880786  0.28246716  0.76420720     0.16000
C764        C  0.51847684  0.24575332  0.77581275     0.21800
C765        C  0.48866756  0.21179614  0.76173506    -0.34400
C766        C  0.97037704  0.21762268  0.73546660     0.15900
O767        O  0.95973619  0.25297686  0.69909880    -0.26500
C768        C  0.93565658  0.21491228  0.69477586     0.05700
C769        C  0.94093897  0.19148831  0.71669747    -0.31300
O770        O  0.53945137  0.24711170  0.80057194    -0.23200
C771        C  0.56353276  0.28517578  0.80489469    -0.03200
C772        C  0.55824886  0.30860119  0.78297513    -0.17600
H773        H  0.01885432  0.31721171  0.72903196     0.20400
H774        H  0.48033115  0.18287735  0.77064106     0.18800
H775        H  0.92533957  0.15988272  0.71851722     0.18700
H776        H  0.57384923  0.34020518  0.78115512     0.14600
C777        C  0.75097200  0.47112545  0.76753592     0.30000
C778        C  0.77776922  0.48824790  0.74264227    -0.36300
C779        C  0.77521444  0.01738243  0.72538998     0.16000
C780        C  0.74822901  0.02897095  0.73215144     0.21800
C781        C  0.72143193  0.01184871  0.75704564    -0.34400
C782        C  0.72398672  0.48271400  0.77429794     0.15900
O783        O  0.74803535  0.44325206  0.78668487    -0.26500
C784        C  0.71884749  0.43701104  0.80598305     0.05700
C785        C  0.70279434  0.46072122  0.79939821    -0.31300
O786        O  0.75116368  0.05684151  0.71299978    -0.23200
C787        C  0.78035053  0.06308026  0.69370081    -0.03200
C788        C  0.79640464  0.03937196  0.70028824    -0.17600
H789        H  0.79908068  0.47946074  0.73710153     0.20400
H790        H  0.70011950  0.02063539  0.76258620     0.18800
H791        H  0.67890320  0.46148826  0.81132008     0.18700
H792        H  0.82029678  0.03860261  0.68836444     0.14600
C793        C  0.74570049  0.01946717  0.52557147     0.30000
C794        C  0.71161410  0.48976875  0.51159106    -0.36300
C795        C  0.71703450  0.47088292  0.98557247     0.16000
C796        C  0.75349628  0.48059318  0.97411009     0.21800
C797        C  0.78758229  0.01029163  0.98809055    -0.34400
C798        C  0.78216214  0.02917741  0.51410936     0.15900
O799        O  0.74740957  0.04083596  0.55015005    -0.26500
C800        C  0.78543881  0.06457376  0.55449454     0.05700
C801        C  0.80851020  0.05867504  0.53276150    -0.31300
O802        O  0.75178657  0.45922485  0.94953096    -0.23200
C803        C  0.71375733  0.43548724  0.94518649    -0.03200
C804        C  0.69068610  0.44138553  0.96692009    -0.17600
H805        H  0.68290153  0.48193949  0.52039546     0.20400
H806        H  0.81629792  0.01812212  0.97928483     0.18800
H807        H  0.84001517  0.07384194  0.53103646     0.18700
H808        H  0.65918329  0.42622050  0.96864479     0.14600
C809        C  0.75065933  0.28050146  0.98259666     0.30000
C810        C  0.77705964  0.28981494  0.50769862    -0.36300
C811        C  0.77484069  0.25796022  0.52445618     0.16000
C812        C  0.74853610  0.21955644  0.51705405     0.21800
C813        C  0.72213543  0.21024279  0.99195180    -0.34400
C814        C  0.72435488  0.24209811  0.97519415     0.15900
O815        O  0.74754053  0.30563709  0.96379031    -0.26500
C816        C  0.71891547  0.28298451  0.94406953     0.05700
C817        C  0.70342220  0.24322622  0.95004515    -0.31300
O818        O  0.75165479  0.19442156  0.53586176    -0.23200
C819        C  0.78028004  0.21707555  0.55558243    -0.03200
C820        C  0.79577271  0.25683298  0.54960528    -0.17600
H821        H  0.79784948  0.31977685  0.51374986     0.20400
H822        H  0.70134584  0.18028218  0.98590130     0.18800
H823        H  0.68007677  0.21876713  0.93767177     0.18700
H824        H  0.81912068  0.28129582  0.56197981     0.14600
C825        C  0.78005971  0.25097808  0.73287014     0.30000
C826        C  0.78921987  0.27761952  0.75780409    -0.36300
C827        C  0.75738478  0.27553518  0.77427642     0.16000
C828        C  0.71913741  0.24912318  0.76677332     0.21800
C829        C  0.70997739  0.22248255  0.74183900    -0.34400
C830        C  0.74181233  0.22456660  0.72536694     0.15900
O831        O  0.80520438  0.24777743  0.71427757    -0.26500
C832        C  0.78271848  0.21897147  0.69459868     0.05700
C833        C  0.74305653  0.20345314  0.70039506    -0.31300
O834        O  0.69399293  0.25231996  0.78536872    -0.23200
C835        C  0.71647871  0.28112357  0.80504955    -0.03200
C836        C  0.75614048  0.29664473  0.79925118    -0.17600
H837        H  0.81905531  0.29849443  0.76393565     0.20400
H838        H  0.68014043  0.20160502  0.73570841     0.18800
H839        H  0.71872644  0.18004841  0.68796378     0.18700
H840        H  0.78047182  0.32004857  0.81168511     0.14600
O841        O  0.59378891  0.81862628  0.39992433    -0.85100
O842        O  0.66250503  0.88422603  0.41622059    -0.82100
C843        C  0.69869837  0.90644184  0.41962398     0.98400
O844        O  0.72263442  0.90473188  0.40070385    -0.82200
O845        O  0.71931876  0.83511890  0.41578335    -0.84800
C846        C  0.70525970  0.79869514  0.41861353     1.02900
O847        O  0.67999726  0.77536576  0.39927569    -0.77600
O848        O  0.61428503  0.77853686  0.41505875    -0.77800
C849        C  0.59201180  0.79262777  0.41862093     1.02800
O850        O  0.61432252  0.83634018  0.33414452    -0.85100
O851        O  0.67916650  0.90533986  0.35043487    -0.82200
C852        C  0.70511419  0.90775647  0.33148761     0.98000
O853        O  0.71978461  0.88590339  0.33468330    -0.82200
O854        O  0.72394070  0.82017762  0.34975223    -0.84800
C855        C  0.70071657  0.79470308  0.33047938     1.02900
O856        O  0.66437650  0.78027829  0.33342584    -0.77600
O857        O  0.59464060  0.77595294  0.34910051    -0.77800
C858        C  0.59251129  0.80004632  0.33047572     1.02800
Cr859      Cr  0.63947302  0.85913702  0.37517097     1.93700
Cr860      Cr  0.71741539  0.85946738  0.37521255     1.93200
Cr861      Cr  0.64026868  0.78154426  0.37424137     1.39100
O862        O  0.66572096  0.83339094  0.37485546    -1.22900
O863        O  0.88487025  0.66374342  0.16552838    -0.85100
O864        O  0.82002777  0.59474042  0.14924562    -0.82100
C865        C  0.79408069  0.59232838  0.16819139     0.98400
O866        O  0.77940966  0.61418015  0.16498961    -0.82200
O867        O  0.77525524  0.67990367  0.14990519    -0.84800
C868        C  0.79847991  0.70538410  0.16917417     1.02900
O869        O  0.83482001  0.71980764  0.16622851    -0.77600
O870        O  0.90455527  0.72412724  0.15056074    -0.77800
C871        C  0.90668168  0.70003794  0.16919231     1.02800
O872        O  0.90540600  0.68143998  0.09974666    -0.85100
O873        O  0.83669027  0.61583800  0.08345767    -0.82200
C874        C  0.80049690  0.59362203  0.08005464     0.98400
O875        O  0.77656056  0.59533574  0.09897216    -0.82200
O876        O  0.77987580  0.66494508  0.08387738    -0.84800
C877        C  0.79393522  0.70136833  0.08104149     1.02900
O878        O  0.81919830  0.72470186  0.10037694    -0.77600
O879        O  0.88490789  0.72152346  0.08460039    -0.77800
C880        C  0.90717956  0.70742996  0.08104221     1.02800
Cr881      Cr  0.85972152  0.64093661  0.12450420     1.93700
Cr882      Cr  0.78177942  0.64060666  0.12445425     1.93200
Cr883      Cr  0.85892692  0.71852961  0.12541610     1.39100
O884        O  0.83347388  0.66668295  0.12481117    -1.22900
C885        C  0.51753312  0.77230344  0.47323384     0.30000
C886        C  0.48711847  0.77583040  0.98708123    -0.36300
C887        C  0.96983584  0.75267079  0.01400504     0.16000
C888        C  0.98164318  0.72773080  0.02641881     0.21800
C889        C  0.01205729  0.72420264  0.51257072    -0.34400
C890        C  0.52934047  0.74736313  0.48564684     0.15900
O891        O  0.53787985  0.79134808  0.44803983    -0.26500
C892        C  0.56300981  0.77841533  0.44423573     0.05700
C893        C  0.55905137  0.75097147  0.46692373    -0.31300
O894        O  0.96130087  0.70869270  0.05161686    -0.23200
C895        C  0.93617438  0.72163008  0.05542207    -0.03200
C896        C  0.94013017  0.74906893  0.03273071    -0.17600
H897        H  0.47761908  0.79527248  0.97753834     0.20400
H898        H  0.02155735  0.70476455  0.52211405     0.18800
H899        H  0.57576892  0.73608796  0.46933435     0.18700
H900        H  0.92341541  0.76395738  0.03032105     0.14600
C901        C  0.98070826  0.75433623  0.22386030     0.30000
C902        C  0.01051714  0.78829388  0.23793842    -0.36300
C903        C  0.52880782  0.78246707  0.26420714     0.16000
C904        C  0.51847685  0.74575329  0.27581273     0.21800
C905        C  0.48866761  0.71179611  0.26173511    -0.34400
C906        C  0.97037709  0.71762273  0.23546660     0.15900
O907        O  0.95973617  0.75297686  0.19909881    -0.26500
C908        C  0.93565667  0.71491236  0.19477586     0.05700
C909        C  0.94093884  0.69148804  0.21669756    -0.31300
O910        O  0.53945141  0.74711176  0.30057189    -0.23200
C911        C  0.56353275  0.78517575  0.30489462    -0.03200
C912        C  0.55824884  0.80860117  0.28297505    -0.17600
H913        H  0.01885405  0.81721126  0.22903198     0.20400
H914        H  0.48033144  0.68287711  0.27064120     0.18800
H915        H  0.92534060  0.65988414  0.21851701     0.18700
H916        H  0.57384907  0.84020487  0.28115510     0.14600
C917        C  0.75097240  0.97112528  0.26753581     0.30000
C918        C  0.77776910  0.98824804  0.24264226    -0.36300
C919        C  0.77521455  0.51738254  0.22538993     0.16000
C920        C  0.74822907  0.52897092  0.23215142     0.21800
C921        C  0.72143203  0.51184876  0.25704572    -0.34400
C922        C  0.72398688  0.98271395  0.27429787     0.15900
O923        O  0.74803534  0.94325196  0.28668497    -0.26500
C924        C  0.71884748  0.93701100  0.30598313     0.05700
C925        C  0.70279440  0.96072122  0.29939820    -0.31300
O926        O  0.75116369  0.55684154  0.21299982    -0.23200
C927        C  0.78035059  0.56308031  0.19370085    -0.03200
C928        C  0.79640458  0.53937197  0.20028820    -0.17600
H929        H  0.79908416  0.97945894  0.23710016     0.20400
H930        H  0.70012003  0.52063520  0.26258615     0.18800
H931        H  0.67890316  0.96148852  0.31132016     0.18700
H932        H  0.82029706  0.53860255  0.18836416     0.14600
C933        C  0.74570003  0.51946713  0.02557151     0.30000
C934        C  0.71161425  0.98976876  0.01159114    -0.36300
C935        C  0.71703484  0.97088294  0.48557231     0.16000
C936        C  0.75349623  0.98059313  0.47411005     0.21800
C937        C  0.78758232  0.51029157  0.48809048    -0.34400
C938        C  0.78216193  0.52917722  0.01410940     0.15900
O939        O  0.74740950  0.54083598  0.05015010    -0.26500
C940        C  0.78543862  0.56457366  0.05449461     0.05700
C941        C  0.80851013  0.55867506  0.03276150    -0.31300
O942        O  0.75178663  0.95922486  0.44953088    -0.23200
C943        C  0.71375745  0.93548731  0.44518639    -0.03200
C944        C  0.69068593  0.94138540  0.46692006    -0.17600
H945        H  0.68290084  0.98193934  0.02039576     0.20400
H946        H  0.81629660  0.51812131  0.47928535     0.18800
H947        H  0.84001353  0.57384085  0.03103663     0.18700
H948        H  0.65918459  0.92622113  0.46864453     0.14600
C949        C  0.75065947  0.78050163  0.48259668     0.30000
C950        C  0.77705981  0.78981522  0.00769863    -0.36300
C951        C  0.77484026  0.75795973  0.02445601     0.16000
C952        C  0.74853585  0.71955623  0.01705401     0.21800
C953        C  0.72213537  0.71024278  0.49195178    -0.34400
C954        C  0.72435505  0.74209845  0.47519427     0.15900
O955        O  0.74754065  0.80563719  0.46379029    -0.26500
C956        C  0.71891551  0.78298466  0.44406961     0.05700
C957        C  0.70342216  0.74322622  0.45004518    -0.31300
O958        O  0.75165469  0.69442145  0.03586170    -0.23200
C959        C  0.78027972  0.71707530  0.05558240    -0.03200
C960        C  0.79577275  0.75683304  0.04960528    -0.17600
H961        H  0.79784640  0.81977232  0.01374892     0.20400
H962        H  0.70134735  0.68028454  0.48590153     0.18800
H963        H  0.68007700  0.71876795  0.43767272     0.18700
H964        H  0.81911845  0.78129379  0.06197891     0.14600
C965        C  0.78005965  0.75097796  0.23287019     0.30000
C966        C  0.78921996  0.77761954  0.25780413    -0.36300
C967        C  0.75738467  0.77553493  0.27427648     0.16000
C968        C  0.71913760  0.74912335  0.26677324     0.21800
C969        C  0.70997725  0.72248229  0.24183891    -0.34400
C970        C  0.74181246  0.72456652  0.22536684     0.15900
O971        O  0.80520425  0.74777733  0.21427761    -0.26500
C972        C  0.78271821  0.71897134  0.19459860     0.05700
C973        C  0.74305657  0.70345321  0.20039517    -0.31300
O974        O  0.69399290  0.75231996  0.28536869    -0.23200
C975        C  0.71647865  0.78112354  0.30504950    -0.03200
C976        C  0.75614054  0.79664477  0.29925117    -0.17600
H977        H  0.81905467  0.79849383  0.26393567     0.20400
H978        H  0.68014306  0.70160660  0.23570852     0.18800
H979        H  0.71872418  0.68004604  0.18796289     0.18700
H980        H  0.78047089  0.82004774  0.31168437     0.14600
O981        O  0.59378911  0.81862630  0.89992434    -0.85100
O982        O  0.66250506  0.88422609  0.91622060    -0.82100
C983        C  0.69869851  0.90644206  0.91962394     0.98400
O984        O  0.72263445  0.90473198  0.90070392    -0.82200
O985        O  0.71931870  0.83511888  0.91578341    -0.84800
C986        C  0.70525977  0.79869519  0.91861353     1.02900
O987        O  0.67999729  0.77536575  0.89927568    -0.77600
O988        O  0.61428506  0.77853678  0.91505870    -0.77800
C989        C  0.59201193  0.79262780  0.91862091     1.02800
O990        O  0.61432269  0.83634033  0.83414455    -0.85100
O991        O  0.67916650  0.90533997  0.85043493    -0.82200
C992        C  0.70511417  0.90775664  0.83148765     0.98000
O993        O  0.71978459  0.88590354  0.83468332    -0.82200
O994        O  0.72394087  0.82017776  0.84975225    -0.84800
C995        C  0.70071678  0.79470327  0.83047942     1.02900
O996        O  0.66437657  0.78027828  0.83342593    -0.77600
O997        O  0.59464059  0.77595291  0.84910049    -0.77800
C998        C  0.59251142  0.80004637  0.83047573     1.02800
Cr999      Cr  0.63947305  0.85913705  0.87517099     1.93700
Cr1000     Cr  0.71741534  0.85946740  0.87521259     1.93200
Cr1001     Cr  0.64026863  0.78154420  0.87424139     1.39100
O1002       O  0.66572088  0.83339088  0.87485549    -1.22900
O1003       O  0.88487021  0.66374336  0.66552832    -0.85100
O1004       O  0.82002771  0.59474031  0.64924558    -0.82100
C1005       C  0.79408086  0.59232851  0.66819144     0.98400
O1006       O  0.77940973  0.61418029  0.66498966    -0.82200
O1007       O  0.77525534  0.67990377  0.64990520    -0.84800
C1008       C  0.79848010  0.70538417  0.66917422     1.02900
O1009       O  0.83482014  0.71980764  0.66622856    -0.77600
O1010       O  0.90455533  0.72412731  0.65056071    -0.77800
C1011       C  0.90668176  0.70003803  0.66919218     1.02800
O1012       O  0.90540580  0.68143986  0.59974667    -0.85100
O1013       O  0.83669026  0.61583802  0.58345775    -0.82200
C1014       C  0.80049695  0.59362215  0.58005460     0.98400
O1015       O  0.77656068  0.59533582  0.59897217    -0.82200
O1016       O  0.77987581  0.66494504  0.58387747    -0.84800
C1017       C  0.79393517  0.70136821  0.58104151     1.02900
O1018       O  0.81919816  0.72470173  0.60037702    -0.77600
O1019       O  0.88490784  0.72152341  0.58460029    -0.77800
C1020       C  0.90717947  0.70742988  0.58104218     1.02800
Cr1021     Cr  0.85972148  0.64093648  0.62450422     1.93700
Cr1022     Cr  0.78177943  0.64060665  0.62445429     1.93200
Cr1023     Cr  0.85892693  0.71852955  0.62541607     1.39100
O1024       O  0.83347389  0.66668284  0.62481117    -1.22900
C1025       C  0.51753326  0.77230341  0.97323381     0.30000
C1026       C  0.48711854  0.77583033  0.48708131    -0.36300
C1027       C  0.96983569  0.75267092  0.51400502     0.16000
C1028       C  0.98164293  0.72773105  0.52641869     0.21800
C1029       C  0.01205733  0.72420280  0.01257064    -0.34400
C1030       C  0.52934064  0.74736313  0.98564677     0.15900
O1031       O  0.53787998  0.79134803  0.94803981    -0.26500
C1032       C  0.56300999  0.77841510  0.94423574     0.05700
C1033       C  0.55905134  0.75097153  0.96692380    -0.31300
O1034       O  0.96130078  0.70869273  0.55161673    -0.23200
C1035       C  0.93617425  0.72163011  0.55542200    -0.03200
C1036       C  0.94013010  0.74906897  0.53273073    -0.17600
H1037       H  0.47761878  0.79527308  0.47753791     0.20400
H1038       H  0.02155894  0.70476239  0.02211525     0.18800
H1039       H  0.57577037  0.73608612  0.96933467     0.18700
H1040       H  0.92341447  0.76395753  0.53032093     0.14600
C1041       C  0.98070828  0.75433628  0.72386036     0.30000
C1042       C  0.01051714  0.78829399  0.73793848    -0.36300
C1043       C  0.52880792  0.78246713  0.76420717     0.16000
C1044       C  0.51847678  0.74575340  0.77581279     0.21800
C1045       C  0.48866755  0.71179610  0.76173513    -0.34400
C1046       C  0.97037704  0.71762273  0.73546660     0.15900
O1047       O  0.95973614  0.75297682  0.69909886    -0.26500
C1048       C  0.93565662  0.71491222  0.69477583     0.05700
C1049       C  0.94093904  0.69148831  0.71669746    -0.31300
O1050       O  0.53945140  0.74711179  0.80057195    -0.23200
C1051       C  0.56353276  0.78517586  0.80489471    -0.03200
C1052       C  0.55824875  0.80860103  0.78297512    -0.17600
H1053       H  0.01885390  0.81721166  0.72903215     0.20400
H1054       H  0.48033122  0.68287775  0.77064101     0.18800
H1055       H  0.92534001  0.65988268  0.71851709     0.18700
H1056       H  0.57384922  0.84020577  0.78115513     0.14600
C1057       C  0.75097210  0.97112543  0.76753597     0.30000
C1058       C  0.77776925  0.98824788  0.74264225    -0.36300
C1059       C  0.77521435  0.51738248  0.72539008     0.16000
C1060       C  0.74822876  0.52897091  0.73215154     0.21800
C1061       C  0.72143201  0.51184865  0.75704569    -0.34400
C1062       C  0.72398682  0.98271392  0.77429788     0.15900
O1063       O  0.74803532  0.94325204  0.78668494    -0.26500
C1064       C  0.71884744  0.93701110  0.80598311     0.05700
C1065       C  0.70279440  0.96072129  0.79939817    -0.31300
O1066       O  0.75116363  0.55684152  0.71299985    -0.23200
C1067       C  0.78035036  0.56308023  0.69370084    -0.03200
C1068       C  0.79640470  0.53937200  0.70028820    -0.17600
H1069       H  0.79908114  0.97946064  0.73710140     0.20400
H1070       H  0.70011762  0.52063589  0.76258658     0.18800
H1071       H  0.67890258  0.96148827  0.81132026     0.18700
H1072       H  0.82029576  0.53860268  0.68836480     0.14600
C1073       C  0.74570046  0.51946721  0.52557143     0.30000
C1074       C  0.71161415  0.98976873  0.51159104    -0.36300
C1075       C  0.71703455  0.97088281  0.98557243     0.16000
C1076       C  0.75349626  0.98059318  0.97411004     0.21800
C1077       C  0.78758217  0.51029161  0.98809059    -0.34400
C1078       C  0.78216201  0.52917732  0.51410938     0.15900
O1079       O  0.74740955  0.54083599  0.55015001    -0.26500
C1080       C  0.78543871  0.56457380  0.55449449     0.05700
C1081       C  0.80851031  0.55867509  0.53276149    -0.31300
O1082       O  0.75178649  0.95922483  0.94953094    -0.23200
C1083       C  0.71375705  0.93548724  0.94518651    -0.03200
C1084       C  0.69068630  0.94138567  0.96692023    -0.17600
H1085       H  0.68290139  0.98193936  0.52039552     0.20400
H1086       H  0.81629808  0.51812208  0.97928486     0.18800
H1087       H  0.84001371  0.57384093  0.53103662     0.18700
H1088       H  0.65918016  0.92621922  0.96864516     0.14600
C1089       C  0.75065921  0.78050145  0.98259665     0.30000
C1090       C  0.77705982  0.78981508  0.50769862    -0.36300
C1091       C  0.77484037  0.75795981  0.52445607     0.16000
C1092       C  0.74853602  0.71955634  0.51705400     0.21800
C1093       C  0.72213539  0.71024269  0.99195179    -0.34400
C1094       C  0.72435497  0.74209816  0.97519409     0.15900
O1095       O  0.74754049  0.80563705  0.96379021    -0.26500
C1096       C  0.71891530  0.78298444  0.94406953     0.05700
C1097       C  0.70342220  0.74322618  0.95004512    -0.31300
O1098       O  0.75165464  0.69442146  0.53586177    -0.23200
C1099       C  0.78027983  0.71707535  0.55558240    -0.03200
C1100       C  0.79577275  0.75683300  0.54960525    -0.17600
H1101       H  0.79784734  0.81977332  0.51374909     0.20400
H1102       H  0.70134685  0.68028317  0.98590141     0.18800
H1103       H  0.68007660  0.71876695  0.93767176     0.18700
H1104       H  0.81911907  0.78129437  0.56197910     0.14600
C1105       C  0.78005957  0.75097800  0.73287012     0.30000
C1106       C  0.78921986  0.77761951  0.75780413    -0.36300
C1107       C  0.75738472  0.77553513  0.77427647     0.16000
C1108       C  0.71913731  0.74912325  0.76677331     0.21800
C1109       C  0.70997735  0.72248256  0.74183905    -0.34400
C1110       C  0.74181212  0.72456635  0.72536690     0.15900
O1111       O  0.80520423  0.74777735  0.71427759    -0.26500
C1112       C  0.78271822  0.71897127  0.69459864     0.05700
C1113       C  0.74305644  0.70345309  0.70039507    -0.31300
O1114       O  0.69399289  0.75232003  0.78536878    -0.23200
C1115       C  0.71647873  0.78112368  0.80504954    -0.03200
C1116       C  0.75614059  0.79664478  0.79925119    -0.17600
H1117       H  0.81905477  0.79849411  0.76393554     0.20400
H1118       H  0.68014013  0.70160494  0.73570836     0.18800
H1119       H  0.71872460  0.68004649  0.68796303     0.18700
H1120       H  0.78047205  0.82004863  0.81168511     0.14600
loop_ 
_geom_bond_atom_site_label_1 
_geom_bond_atom_site_label_2 
_geom_bond_distance 
_geom_bond_site_symmetry_2 
_ccdc_geom_bond_type 
O1          Cr19   2.006       .  S
O1            C9   1.264       .  A
O2          Cr19   1.980       .  S
O2            C3   1.261       .  A
C3            O4   1.264       .  A
C3          C103   1.468       .  S
O4          Cr20   2.005       .  S
O5          Cr20   1.979       .  S
O5            C6   1.260       .  A
C6            O7   1.265       .  A
C6          C116   1.468       .  S
O7          Cr21   2.003       .  S
O8          Cr21   1.977       .  S
O8            C9   1.260       .  A
C9           C52   1.467       .  S
O10         Cr19   1.978       .  S
O10          C18   1.260       .  A
O11         Cr19   2.004       .  S
O11          C12   1.265       .  A
C12          O13   1.260       .  A
C12          C84   1.467       .  S
O13         Cr20   1.977       .  S
O14         Cr20   2.004       .  S
O14          C15   1.265       .  A
C15          O16   1.260       .  A
C15         C135   1.468       .  S
O16         Cr21   1.980       .  S
O17         Cr21   2.007       .  S
O17          C18   1.264       .  A
C18          C71   1.468       .  S
Cr19         O22   1.772       .  S
Cr20         O22   1.773       .  S
Cr21         O22   1.772       .  S
O23         Cr41   1.978       .  S
O23          C31   1.260       .  A
O24         Cr41   2.004       .  S
O24          C25   1.265       .  A
C25          O26   1.260       .  A
C25          C87   1.467       .  S
O26         Cr42   1.977       .  S
O27         Cr42   2.004       .  S
O27          C28   1.265       .  A
C28          O29   1.260       .  A
C28         C132   1.468       .  S
O29         Cr43   1.980       .  S
O30         Cr43   2.007       .  S
O30          C31   1.264       .  A
C31          C68   1.468       .  S
O32         Cr41   2.006       .  S
O32          C40   1.264       .  A
O33         Cr41   1.980       .  S
O33          C34   1.260       .  A
C34          O35   1.264       .  A
C34         C100   1.468       .  S
O35         Cr42   2.005       .  S
O36         Cr42   1.979       .  S
O36          C37   1.260       .  A
C37          O38   1.265       .  A
C37         C119   1.468       .  S
O38         Cr43   2.003       .  S
O39         Cr43   1.977       .  S
O39          C40   1.260       .  A
C40          C55   1.467       .  S
Cr41         O44   1.772       .  S
Cr42         O44   1.773       .  S
Cr43         O44   1.772       .  S
C45          C50   1.381       .  A
C45         C186   1.403   1_455  A
C45          O51   1.317       .  A
C46         C185   1.403   1_655  A
C46         C607   1.402   1_556  A
C46          H57   1.082       .  S
C47          C56   1.362       .  A
C47          C48   1.381       .  A
C47         C606   1.402   1_554  A
C48         C189   1.403       .  A
C48          O54   1.317       .  A
C49         C188   1.403       .  A
C49         C610   1.402       .  A
C49          H58   1.082       .  S
C50          C53   1.362       .  A
C50         C609   1.402       .  A
O51          C52   1.330       .  A
C52          C53   1.391       .  A
C53          H59   1.083       .  S
O54          C55   1.330       .  A
C55          C56   1.391       .  A
C56          H60   1.083       .  S
C61          C66   1.380       .  A
C61          C62   1.403       .  A
C61          O67   1.318       .  A
C62         C623   1.402       .  A
C62          H73   1.082       .  S
C63          C72   1.362       .  A
C63          C64   1.380       .  A
C63         C622   1.402       .  A
C64          C65   1.403   1_455  A
C64          O70   1.318       .  A
C65         C626   1.402       .  A
C65          H74   1.082       .  S
C66          C69   1.362       .  A
C66         C625   1.402       .  A
O67          C68   1.331       .  A
C68          C69   1.391       .  A
C69          H75   1.083       .  S
O70          C71   1.331       .  A
C71          C72   1.391       .  A
C72          H76   1.083       .  S
C77          C82   1.381       .  A
C77          C78   1.402       .  A
C77          O83   1.319       .  A
C78         C359   1.402       .  A
C78          H89   1.082       .  S
C79          C88   1.359       .  A
C79          C80   1.381       .  A
C79         C358   1.402   1_545  A
C80          C81   1.402       .  A
C80          O86   1.319       .  A
C81         C362   1.402   1_545  A
C81          H90   1.082       .  S
C82          C85   1.359       .  A
C82         C361   1.402       .  A
O83          C84   1.330       .  A
C84          C85   1.391       .  A
C85          H91   1.083       .  S
O86          C87   1.330       .  A
C87          C88   1.391       .  A
C88          H92   1.083       .  S
C93          C98   1.380       .  A
C93         C374   1.403   1_545  A
C93          O99   1.317       .  A
C94         C373   1.403       .  A
C94         C235   1.402   1_554  A
C94         H105   1.082       .  S
C95         C104   1.363       .  A
C95          C96   1.380       .  A
C95         C234   1.402       .  A
C96         C377   1.403       .  A
C96         O102   1.317       .  A
C97         C376   1.403   1_545  A
C97         C238   1.402       .  A
C97         H106   1.082       .  S
C98         C101   1.363       .  A
C98         C237   1.402   1_554  A
O99         C100   1.331       .  A
C100        C101   1.391       .  A
C101        H107   1.083       .  S
O102        C103   1.331       .  A
C103        C104   1.391       .  A
C104        H108   1.083       .  S
C109        C114   1.381       .  A
C109        C250   1.402       .  A
C109        O115   1.319       .  A
C110        C111   1.402       .  A
C110        C249   1.402   1_554  A
C110        H121   1.082       .  S
C111        C120   1.359       .  A
C111        C112   1.381       .  A
C112        C253   1.402   1_554  A
C112        O118   1.319       .  A
C113        C114   1.402       .  A
C113        C252   1.402       .  A
C113        H122   1.082       .  S
C114        C117   1.359       .  A
O115        C116   1.330       .  A
C116        C117   1.391       .  A
C117        H123   1.082       .  S
O118        C119   1.330       .  A
C119        C120   1.391       .  A
C120        H124   1.082       .  S
C125        C130   1.381       .  A
C125        C126   1.402       .  A
C125        O131   1.319       .  A
C126        C127   1.402       .  A
C126        H137   1.082       .  S
C127        C136   1.359       .  A
C127        C128   1.381       .  A
C128        C129   1.402       .  A
C128        O134   1.319       .  A
C129        C130   1.402       .  A
C129        H138   1.082       .  S
C130        C133   1.359       .  A
O131        C132   1.330       .  A
C132        C133   1.391       .  A
C133        H139   1.082       .  S
O134        C135   1.330       .  A
C135        C136   1.391       .  A
C136        H140   1.083       .  S
O141       Cr159   2.006       .  S
O141        C149   1.264       .  A
O142       Cr159   1.980       .  S
O142        C143   1.261       .  A
C143        O144   1.264       .  A
C143        C243   1.468       .  S
O144       Cr160   2.005       .  S
O145       Cr160   1.979       .  S
O145        C146   1.260       .  A
C146        O147   1.265       .  A
C146        C256   1.468       .  S
O147       Cr161   2.003       .  S
O148       Cr161   1.977       .  S
O148        C149   1.260       .  A
C149        C192   1.467       .  S
O150       Cr159   1.978       .  S
O150        C158   1.260       .  A
O151       Cr159   2.004       .  S
O151        C152   1.265       .  A
C152        O153   1.260       .  A
C152        C224   1.467       .  S
O153       Cr160   1.977       .  S
O154       Cr160   2.004       .  S
O154        C155   1.265       .  A
C155        O156   1.260       .  A
C155        C275   1.468       .  S
O156       Cr161   1.980       .  S
O157       Cr161   2.007       .  S
O157        C158   1.264       .  A
C158        C211   1.468       .  S
Cr159       O162   1.772       .  S
Cr160       O162   1.773       .  S
Cr161       O162   1.772       .  S
O163       Cr181   1.978       .  S
O163        C171   1.260       .  A
O164       Cr181   2.004       .  S
O164        C165   1.265       .  A
C165        O166   1.260       .  A
C165        C227   1.467       .  S
O166       Cr182   1.977       .  S
O167       Cr182   2.004       .  S
O167        C168   1.265       .  A
C168        O169   1.260       .  A
C168        C272   1.468       .  S
O169       Cr183   1.980       .  S
O170       Cr183   2.007       .  S
O170        C171   1.264       .  A
C171        C208   1.468       .  S
O172       Cr181   2.006       .  S
O172        C180   1.264       .  A
O173       Cr181   1.980       .  S
O173        C174   1.260       .  A
C174        O175   1.264       .  A
C174        C240   1.468       .  S
O175       Cr182   2.005       .  S
O176       Cr182   1.979       .  S
O176        C177   1.260       .  A
C177        O178   1.265       .  A
C177        C259   1.468       .  S
O178       Cr183   2.003       .  S
O179       Cr183   1.977       .  S
O179        C180   1.260       .  A
C180        C195   1.467       .  S
Cr181       O184   1.772       .  S
Cr182       O184   1.773       .  S
Cr183       O184   1.772       .  S
C185        C190   1.381       .  A
C185        O191   1.317       .  A
C186        C747   1.402       .  A
C186        H197   1.082       .  S
C187        C746   1.402       .  A
C187        C196   1.362       .  A
C187        C188   1.381       .  A
C188        O194   1.317       .  A
C189        C750   1.402   1_554  A
C189        H198   1.082       .  S
C190        C749   1.402   1_556  A
C190        C193   1.362       .  A
O191        C192   1.330       .  A
C192        C193   1.391       .  A
C193        H199   1.083       .  S
O194        C195   1.330       .  A
C195        C196   1.391       .  A
C196        H200   1.083       .  S
C201        C206   1.380       .  A
C201        C202   1.403       .  A
C201        O207   1.318       .  A
C202        C763   1.402       .  A
C202        H213   1.082       .  S
C203        C762   1.402       .  A
C203        C212   1.362       .  A
C203        C204   1.380       .  A
C204        C205   1.403   1_455  A
C204        O210   1.318       .  A
C205        C766   1.402       .  A
C205        H214   1.082       .  S
C206        C765   1.402       .  A
C206        C209   1.362       .  A
O207        C208   1.331       .  A
C208        C209   1.391       .  A
C209        H215   1.083       .  S
O210        C211   1.331       .  A
C211        C212   1.391       .  A
C212        H216   1.083       .  S
C217        C222   1.381       .  A
C217        C218   1.402       .  A
C217        O223   1.319       .  A
C218        C499   1.402       .  A
C218        H229   1.082       .  S
C219        C498   1.402   1_545  A
C219        C228   1.359       .  A
C219        C220   1.381       .  A
C220        C221   1.402       .  A
C220        O226   1.319       .  A
C221        C502   1.402   1_545  A
C221        H230   1.082       .  S
C222        C501   1.402       .  A
C222        C225   1.359       .  A
O223        C224   1.330       .  A
C224        C225   1.391       .  A
C225        H231   1.082       .  S
O226        C227   1.330       .  A
C227        C228   1.391       .  A
C228        H232   1.083       .  S
C233        C238   1.380       .  A
C233        C514   1.403   1_545  A
C233        O239   1.317       .  A
C234        C513   1.403       .  A
C234        H245   1.082       .  S
C235        C244   1.363       .  A
C235        C236   1.380       .  A
C236        C517   1.403       .  A
C236        O242   1.317       .  A
C237        C516   1.403   1_545  A
C237        H246   1.082       .  S
C238        C241   1.363       .  A
O239        C240   1.331       .  A
C240        C241   1.391       .  A
C241        H247   1.083       .  S
O242        C243   1.331       .  A
C243        C244   1.391       .  A
C244        H248   1.083       .  S
C249        C254   1.381       .  A
C249        O255   1.319       .  A
C250        C251   1.402       .  A
C250        H261   1.082       .  S
C251        C260   1.359       .  A
C251        C252   1.381       .  A
C252        O258   1.319       .  A
C253        C254   1.402       .  A
C253        H262   1.082       .  S
C254        C257   1.359       .  A
O255        C256   1.330       .  A
C256        C257   1.391       .  A
C257        H263   1.083       .  S
O258        C259   1.330       .  A
C259        C260   1.391       .  A
C260        H264   1.083       .  S
C265        C270   1.381       .  A
C265        C266   1.402       .  A
C265        O271   1.319       .  A
C266        C267   1.402       .  A
C266        H277   1.082       .  S
C267        C276   1.359       .  A
C267        C268   1.381       .  A
C268        C269   1.402       .  A
C268        O274   1.319       .  A
C269        C270   1.402       .  A
C269        H278   1.082       .  S
C270        C273   1.359       .  A
O271        C272   1.330       .  A
C272        C273   1.391       .  A
C273        H279   1.082       .  S
O274        C275   1.330       .  A
C275        C276   1.391       .  A
C276        H280   1.082       .  S
O281       Cr299   2.006       .  S
O281        C289   1.264       .  A
O282       Cr299   1.980       .  S
O282        C283   1.261       .  A
C283        O284   1.264       .  A
C283        C383   1.468       .  S
O284       Cr300   2.005       .  S
O285       Cr300   1.979       .  S
O285        C286   1.260       .  A
C286        O287   1.265       .  A
C286        C396   1.468       .  S
O287       Cr301   2.003       .  S
O288       Cr301   1.977       .  S
O288        C289   1.260       .  A
C289        C332   1.467       .  S
O290       Cr299   1.978       .  S
O290        C298   1.260       .  A
O291       Cr299   2.004       .  S
O291        C292   1.265       .  A
C292        O293   1.260       .  A
C292        C364   1.467       .  S
O293       Cr300   1.977       .  S
O294       Cr300   2.004       .  S
O294        C295   1.265       .  A
C295        O296   1.260       .  A
C295        C415   1.468       .  S
O296       Cr301   1.980       .  S
O297       Cr301   2.007       .  S
O297        C298   1.264       .  A
C298        C351   1.468       .  S
Cr299       O302   1.772       .  S
Cr300       O302   1.773       .  S
Cr301       O302   1.772       .  S
O303       Cr321   1.978       .  S
O303        C311   1.260       .  A
O304       Cr321   2.004       .  S
O304        C305   1.265       .  A
C305        O306   1.260       .  A
C305        C367   1.467       .  S
O306       Cr322   1.977       .  S
O307       Cr322   2.004       .  S
O307        C308   1.265       .  A
C308        O309   1.260       .  A
C308        C412   1.468       .  S
O309       Cr323   1.980       .  S
O310       Cr323   2.007       .  S
O310        C311   1.264       .  A
C311        C348   1.468       .  S
O312       Cr321   2.006       .  S
O312        C320   1.264       .  A
O313       Cr321   1.980       .  S
O313        C314   1.261       .  A
C314        O315   1.264       .  A
C314        C380   1.468       .  S
O315       Cr322   2.005       .  S
O316       Cr322   1.979       .  S
O316        C317   1.260       .  A
C317        O318   1.265       .  A
C317        C399   1.468       .  S
O318       Cr323   2.003       .  S
O319       Cr323   1.977       .  S
O319        C320   1.260       .  A
C320        C335   1.467       .  S
Cr321       O324   1.772       .  S
Cr322       O324   1.773       .  S
Cr323       O324   1.772       .  S
C325        C330   1.381       .  A
C325        C466   1.403   1_455  A
C325        O331   1.317       .  A
C326        C465   1.403   1_655  A
C326        C887   1.402   1_556  A
C326        H337   1.082       .  S
C327        C886   1.402   1_554  A
C327        C336   1.362       .  A
C327        C328   1.381       .  A
C328        C469   1.403       .  A
C328        O334   1.317       .  A
C329        C468   1.403       .  A
C329        C890   1.402       .  A
C329        H338   1.082       .  S
C330        C889   1.402       .  A
C330        C333   1.362       .  A
O331        C332   1.330       .  A
C332        C333   1.391       .  A
C333        H339   1.083       .  S
O334        C335   1.330       .  A
C335        C336   1.391       .  A
C336        H340   1.083       .  S
C341        C346   1.380       .  A
C341        C342   1.403       .  A
C341        O347   1.318       .  A
C342        C903   1.402       .  A
C342        H353   1.082       .  S
C343        C902   1.402       .  A
C343        C352   1.362       .  A
C343        C344   1.380       .  A
C344        C345   1.403   1_455  A
C344        O350   1.318       .  A
C345        C906   1.402       .  A
C345        H354   1.082       .  S
C346        C905   1.402       .  A
C346        C349   1.362       .  A
O347        C348   1.331       .  A
C348        C349   1.391       .  A
C349        H355   1.083       .  S
O350        C351   1.331       .  A
C351        C352   1.391       .  A
C352        H356   1.083       .  S
C357        C362   1.381       .  A
C357        C358   1.402       .  A
C357        O363   1.319       .  A
C358        H369   1.082       .  S
C359        C368   1.359       .  A
C359        C360   1.381       .  A
C360        C361   1.402       .  A
C360        O366   1.319       .  A
C361        H370   1.082       .  S
C362        C365   1.359       .  A
O363        C364   1.330       .  A
C364        C365   1.391       .  A
C365        H371   1.083       .  S
O366        C367   1.330       .  A
C367        C368   1.391       .  A
C368        H372   1.083       .  S
C373        C378   1.380       .  A
C373        O379   1.317       .  A
C374        C515   1.402   1_554  A
C374        H385   1.082       .  S
C375        C514   1.402       .  A
C375        C384   1.363       .  A
C375        C376   1.380       .  A
C376        O382   1.317       .  A
C377        C518   1.402       .  A
C377        H386   1.082       .  S
C378        C517   1.402   1_554  A
C378        C381   1.363       .  A
O379        C380   1.331       .  A
C380        C381   1.391       .  A
C381        H387   1.083       .  S
O382        C383   1.331       .  A
C383        C384   1.391       .  A
C384        H388   1.083       .  S
C389        C394   1.381       .  A
C389        C530   1.402       .  A
C389        O395   1.319       .  A
C390        C529   1.402   1_554  A
C390        C391   1.402       .  A
C390        H401   1.082       .  S
C391        C400   1.359       .  A
C391        C392   1.381       .  A
C392        C533   1.402   1_554  A
C392        O398   1.319       .  A
C393        C532   1.402       .  A
C393        C394   1.402       .  A
C393        H402   1.082       .  S
C394        C397   1.359       .  A
O395        C396   1.330       .  A
C396        C397   1.391       .  A
C397        H403   1.082       .  S
O398        C399   1.330       .  A
C399        C400   1.391       .  A
C400        H404   1.082       .  S
C405        C410   1.381       .  A
C405        C406   1.402       .  A
C405        O411   1.319       .  A
C406        C407   1.402       .  A
C406        H417   1.082       .  S
C407        C416   1.359       .  A
C407        C408   1.381       .  A
C408        C409   1.402       .  A
C408        O414   1.319       .  A
C409        C410   1.402       .  A
C409        H418   1.082       .  S
C410        C413   1.359       .  A
O411        C412   1.330       .  A
C412        C413   1.391       .  A
C413        H419   1.082       .  S
O414        C415   1.330       .  A
C415        C416   1.391       .  A
C416        H420   1.082       .  S
O421       Cr439   2.006       .  S
O421        C429   1.264       .  A
O422       Cr439   1.980       .  S
O422        C423   1.261       .  A
C423        O424   1.264       .  A
C423        C523   1.468       .  S
O424       Cr440   2.005       .  S
O425       Cr440   1.979       .  S
O425        C426   1.260       .  A
C426        O427   1.265       .  A
C426        C536   1.468       .  S
O427       Cr441   2.003       .  S
O428       Cr441   1.977       .  S
O428        C429   1.260       .  A
C429        C472   1.467       .  S
O430       Cr439   1.978       .  S
O430        C438   1.260       .  A
O431       Cr439   2.004       .  S
O431        C432   1.265       .  A
C432        O433   1.260       .  A
C432        C504   1.467       .  S
O433       Cr440   1.977       .  S
O434       Cr440   2.004       .  S
O434        C435   1.265       .  A
C435        O436   1.260       .  A
C435        C555   1.468       .  S
O436       Cr441   1.980       .  S
O437       Cr441   2.007       .  S
O437        C438   1.264       .  A
C438        C491   1.468       .  S
Cr439       O442   1.772       .  S
Cr440       O442   1.773       .  S
Cr441       O442   1.772       .  S
O443       Cr461   1.978       .  S
O443        C451   1.260       .  A
O444       Cr461   2.004       .  S
O444        C445   1.265       .  A
C445        O446   1.260       .  A
C445        C507   1.467       .  S
O446       Cr462   1.977       .  S
O447       Cr462   2.004       .  S
O447        C448   1.265       .  A
C448        O449   1.260       .  A
C448        C552   1.468       .  S
O449       Cr463   1.980       .  S
O450       Cr463   2.007       .  S
O450        C451   1.264       .  A
C451        C488   1.468       .  S
O452       Cr461   2.006       .  S
O452        C460   1.264       .  A
O453       Cr461   1.980       .  S
O453        C454   1.261       .  A
C454        O455   1.264       .  A
C454        C520   1.468       .  S
O455       Cr462   2.005       .  S
O456       Cr462   1.979       .  S
O456        C457   1.260       .  A
C457        O458   1.265       .  A
C457        C539   1.468       .  S
O458       Cr463   2.003       .  S
O459       Cr463   1.977       .  S
O459        C460   1.260       .  A
C460        C475   1.467       .  S
Cr461       O464   1.772       .  S
Cr462       O464   1.773       .  S
Cr463       O464   1.772       .  S
C465        C470   1.381       .  A
C465        O471   1.317       .  A
C466       C1027   1.402       .  A
C466        H477   1.082       .  S
C467       C1026   1.402       .  A
C467        C476   1.362       .  A
C467        C468   1.381       .  A
C468        O474   1.317       .  A
C469       C1030   1.402   1_554  A
C469        H478   1.082       .  S
C470       C1029   1.402   1_556  A
C470        C473   1.362       .  A
O471        C472   1.330       .  A
C472        C473   1.391       .  A
C473        H479   1.083       .  S
O474        C475   1.330       .  A
C475        C476   1.391       .  A
C476        H480   1.083       .  S
C481        C486   1.380       .  A
C481        C482   1.403       .  A
C481        O487   1.318       .  A
C482       C1043   1.402       .  A
C482        H493   1.082       .  S
C483       C1042   1.402       .  A
C483        C492   1.362       .  A
C483        C484   1.380       .  A
C484        C485   1.403   1_455  A
C484        O490   1.318       .  A
C485       C1046   1.402       .  A
C485        H494   1.082       .  S
C486       C1045   1.402       .  A
C486        C489   1.362       .  A
O487        C488   1.331       .  A
C488        C489   1.391       .  A
C489        H495   1.083       .  S
O490        C491   1.331       .  A
C491        C492   1.391       .  A
C492        H496   1.083       .  S
C497        C502   1.381       .  A
C497        C498   1.402       .  A
C497        O503   1.319       .  A
C498        H509   1.082       .  S
C499        C508   1.359       .  A
C499        C500   1.381       .  A
C500        C501   1.402       .  A
C500        O506   1.319       .  A
C501        H510   1.082       .  S
C502        C505   1.359       .  A
O503        C504   1.330       .  A
C504        C505   1.391       .  A
C505        H511   1.082       .  S
O506        C507   1.330       .  A
C507        C508   1.391       .  A
C508        H512   1.083       .  S
C513        C518   1.380       .  A
C513        O519   1.317       .  A
C514        H525   1.082       .  S
C515        C524   1.363       .  A
C515        C516   1.380       .  A
C516        O522   1.317       .  A
C517        H526   1.082       .  S
C518        C521   1.363       .  A
O519        C520   1.331       .  A
C520        C521   1.391       .  A
C521        H527   1.083       .  S
O522        C523   1.331       .  A
C523        C524   1.391       .  A
C524        H528   1.083       .  S
C529        C534   1.381       .  A
C529        O535   1.319       .  A
C530        C531   1.402       .  A
C530        H541   1.082       .  S
C531        C540   1.359       .  A
C531        C532   1.381       .  A
C532        O538   1.319       .  A
C533        C534   1.402       .  A
C533        H542   1.082       .  S
C534        C537   1.359       .  A
O535        C536   1.330       .  A
C536        C537   1.391       .  A
C537        H543   1.082       .  S
O538        C539   1.330       .  A
C539        C540   1.391       .  A
C540        H544   1.083       .  S
C545        C550   1.381       .  A
C545        C546   1.402       .  A
C545        O551   1.319       .  A
C546        C547   1.402       .  A
C546        H557   1.082       .  S
C547        C556   1.359       .  A
C547        C548   1.381       .  A
C548        C549   1.402       .  A
C548        O554   1.319       .  A
C549        C550   1.402       .  A
C549        H558   1.082       .  S
C550        C553   1.359       .  A
O551        C552   1.330       .  A
C552        C553   1.391       .  A
C553        H559   1.082       .  S
O554        C555   1.330       .  A
C555        C556   1.391       .  A
C556        H560   1.082       .  S
O561       Cr579   2.006       .  S
O561        C569   1.264       .  A
O562       Cr579   1.980       .  S
O562        C563   1.261       .  A
C563        O564   1.264       .  A
C563        C663   1.468       .  S
O564       Cr580   2.005       .  S
O565       Cr580   1.979       .  S
O565        C566   1.260       .  A
C566        O567   1.265       .  A
C566        C676   1.468       .  S
O567       Cr581   2.003       .  S
O568       Cr581   1.977       .  S
O568        C569   1.260       .  A
C569        C612   1.467       .  S
O570       Cr579   1.978       .  S
O570        C578   1.260       .  A
O571       Cr579   2.004       .  S
O571        C572   1.265       .  A
C572        O573   1.260       .  A
C572        C644   1.467       .  S
O573       Cr580   1.977       .  S
O574       Cr580   2.004       .  S
O574        C575   1.265       .  A
C575        O576   1.260       .  A
C575        C695   1.468       .  S
O576       Cr581   1.980       .  S
O577       Cr581   2.007       .  S
O577        C578   1.264       .  A
C578        C631   1.468       .  S
Cr579       O582   1.772       .  S
Cr580       O582   1.773       .  S
Cr581       O582   1.772       .  S
O583       Cr601   1.978       .  S
O583        C591   1.260       .  A
O584       Cr601   2.004       .  S
O584        C585   1.265       .  A
C585        O586   1.260       .  A
C585        C647   1.467       .  S
O586       Cr602   1.977       .  S
O587       Cr602   2.004       .  S
O587        C588   1.265       .  A
C588        O589   1.260       .  A
C588        C692   1.468       .  S
O589       Cr603   1.980       .  S
O590       Cr603   2.007       .  S
O590        C591   1.264       .  A
C591        C628   1.468       .  S
O592       Cr601   2.006       .  S
O592        C600   1.264       .  A
O593       Cr601   1.980       .  S
O593        C594   1.260       .  A
C594        O595   1.264       .  A
C594        C660   1.468       .  S
O595       Cr602   2.005       .  S
O596       Cr602   1.979       .  S
O596        C597   1.260       .  A
C597        O598   1.265       .  A
C597        C679   1.468       .  S
O598       Cr603   2.003       .  S
O599       Cr603   1.977       .  S
O599        C600   1.260       .  A
C600        C615   1.467       .  S
Cr601       O604   1.772       .  S
Cr602       O604   1.773       .  S
Cr603       O604   1.772       .  S
C605        C610   1.381       .  A
C605        C746   1.403       .  A
C605        O611   1.317       .  A
C606        C745   1.403       .  A
C606        H617   1.082       .  S
C607        C616   1.362       .  A
C607        C608   1.381       .  A
C608        C749   1.403   1_655  A
C608        O614   1.317       .  A
C609        C748   1.403   1_455  A
C609        H618   1.082       .  S
C610        C613   1.362       .  A
O611        C612   1.330       .  A
C612        C613   1.391       .  A
C613        H619   1.083       .  S
O614        C615   1.330       .  A
C615        C616   1.391       .  A
C616        H620   1.083       .  S
C621        C626   1.380       .  A
C621        C622   1.403   1_655  A
C621        O627   1.318       .  A
C622        H633   1.082       .  S
C623        C632   1.362       .  A
C623        C624   1.380       .  A
C624        C625   1.403       .  A
C624        O630   1.318       .  A
C625        H634   1.082       .  S
C626        C629   1.362       .  A
O627        C628   1.331       .  A
C628        C629   1.391       .  A
C629        H635   1.083       .  S
O630        C631   1.331       .  A
C631        C632   1.391       .  A
C632        H636   1.083       .  S
C637        C642   1.381       .  A
C637        C638   1.402       .  A
C637        O643   1.319       .  A
C638        C919   1.402       .  A
C638        H649   1.082       .  S
C639        C918   1.402   1_545  A
C639        C648   1.359       .  A
C639        C640   1.381       .  A
C640        C641   1.402       .  A
C640        O646   1.319       .  A
C641        C922   1.402   1_545  A
C641        H650   1.082       .  S
C642        C921   1.402       .  A
C642        C645   1.359       .  A
O643        C644   1.330       .  A
C644        C645   1.391       .  A
C645        H651   1.083       .  S
O646        C647   1.330       .  A
C647        C648   1.391       .  A
C648        H652   1.082       .  S
C653        C658   1.380       .  A
C653        C934   1.403   1_545  A
C653        O659   1.317       .  A
C654        C933   1.403       .  A
C654        C795   1.402   1_554  A
C654        H665   1.082       .  S
C655        C794   1.402       .  A
C655        C664   1.363       .  A
C655        C656   1.380       .  A
C656        C937   1.403       .  A
C656        O662   1.317       .  A
C657        C936   1.403   1_545  A
C657        C798   1.402       .  A
C657        H666   1.082       .  S
C658        C797   1.402   1_554  A
C658        C661   1.363       .  A
O659        C660   1.331       .  A
C660        C661   1.391       .  A
C661        H667   1.083       .  S
O662        C663   1.331       .  A
C663        C664   1.391       .  A
C664        H668   1.083       .  S
C669        C674   1.381       .  A
C669        C810   1.402       .  A
C669        O675   1.319       .  A
C670        C809   1.402   1_554  A
C670        C671   1.402       .  A
C670        H681   1.082       .  S
C671        C680   1.359       .  A
C671        C672   1.381       .  A
C672        C813   1.402   1_554  A
C672        O678   1.319       .  A
C673        C812   1.402       .  A
C673        C674   1.402       .  A
C673        H682   1.082       .  S
C674        C677   1.359       .  A
O675        C676   1.330       .  A
C676        C677   1.391       .  A
C677        H683   1.082       .  S
O678        C679   1.330       .  A
C679        C680   1.391       .  A
C680        H684   1.082       .  S
C685        C690   1.381       .  A
C685        C686   1.402       .  A
C685        O691   1.319       .  A
C686        C687   1.402       .  A
C686        H697   1.082       .  S
C687        C696   1.359       .  A
C687        C688   1.381       .  A
C688        C689   1.402       .  A
C688        O694   1.319       .  A
C689        C690   1.402       .  A
C689        H698   1.082       .  S
C690        C693   1.359       .  A
O691        C692   1.330       .  A
C692        C693   1.391       .  A
C693        H699   1.082       .  S
O694        C695   1.330       .  A
C695        C696   1.391       .  A
C696        H700   1.083       .  S
O701       Cr719   2.006       .  S
O701        C709   1.264       .  A
O702       Cr719   1.980       .  S
O702        C703   1.261       .  A
C703        O704   1.264       .  A
C703        C803   1.468       .  S
O704       Cr720   2.005       .  S
O705       Cr720   1.979       .  S
O705        C706   1.260       .  A
C706        O707   1.265       .  A
C706        C816   1.468       .  S
O707       Cr721   2.003       .  S
O708       Cr721   1.977       .  S
O708        C709   1.260       .  A
C709        C752   1.467       .  S
O710       Cr719   1.978       .  S
O710        C718   1.260       .  A
O711       Cr719   2.004       .  S
O711        C712   1.265       .  A
C712        O713   1.260       .  A
C712        C784   1.467       .  S
O713       Cr720   1.977       .  S
O714       Cr720   2.004       .  S
O714        C715   1.265       .  A
C715        O716   1.260       .  A
C715        C835   1.468       .  S
O716       Cr721   1.980       .  S
O717       Cr721   2.007       .  S
O717        C718   1.264       .  A
C718        C771   1.468       .  S
Cr719       O722   1.772       .  S
Cr720       O722   1.773       .  S
Cr721       O722   1.772       .  S
O723       Cr741   1.978       .  S
O723        C731   1.260       .  A
O724       Cr741   2.004       .  S
O724        C725   1.265       .  A
C725        O726   1.260       .  A
C725        C787   1.467       .  S
O726       Cr742   1.977       .  S
O727       Cr742   2.004       .  S
O727        C728   1.265       .  A
C728        O729   1.260       .  A
C728        C832   1.468       .  S
O729       Cr743   1.980       .  S
O730       Cr743   2.007       .  S
O730        C731   1.264       .  A
C731        C768   1.468       .  S
O732       Cr741   2.006       .  S
O732        C740   1.264       .  A
O733       Cr741   1.980       .  S
O733        C734   1.261       .  A
C734        O735   1.264       .  A
C734        C800   1.468       .  S
O735       Cr742   2.005       .  S
O736       Cr742   1.979       .  S
O736        C737   1.260       .  A
C737        O738   1.265       .  A
C737        C819   1.468       .  S
O738       Cr743   2.003       .  S
O739       Cr743   1.977       .  S
O739        C740   1.260       .  A
C740        C755   1.467       .  S
Cr741       O744   1.772       .  S
Cr742       O744   1.773       .  S
Cr743       O744   1.772       .  S
C745        C750   1.381       .  A
C745        O751   1.317       .  A
C746        H757   1.082       .  S
C747        C756   1.362       .  A
C747        C748   1.381       .  A
C748        O754   1.317       .  A
C749        H758   1.082       .  S
C750        C753   1.362       .  A
O751        C752   1.330       .  A
C752        C753   1.391       .  A
C753        H759   1.083       .  S
O754        C755   1.330       .  A
C755        C756   1.391       .  A
C756        H760   1.083       .  S
C761        C766   1.380       .  A
C761        C762   1.403   1_655  A
C761        O767   1.318       .  A
C762        H773   1.082       .  S
C763        C772   1.362       .  A
C763        C764   1.380       .  A
C764        C765   1.403       .  A
C764        O770   1.318       .  A
C765        H774   1.082       .  S
C766        C769   1.362       .  A
O767        C768   1.331       .  A
C768        C769   1.391       .  A
C769        H775   1.083       .  S
O770        C771   1.331       .  A
C771        C772   1.391       .  A
C772        H776   1.083       .  S
C777        C782   1.381       .  A
C777        C778   1.402       .  A
C777        O783   1.319       .  A
C778       C1059   1.402       .  A
C778        H789   1.082       .  S
C779       C1058   1.402   1_545  A
C779        C788   1.359       .  A
C779        C780   1.381       .  A
C780        C781   1.402       .  A
C780        O786   1.319       .  A
C781       C1062   1.402   1_545  A
C781        H790   1.082       .  S
C782       C1061   1.402       .  A
C782        C785   1.359       .  A
O783        C784   1.330       .  A
C784        C785   1.391       .  A
C785        H791   1.082       .  S
O786        C787   1.330       .  A
C787        C788   1.391       .  A
C788        H792   1.083       .  S
C793        C798   1.380       .  A
C793       C1074   1.403   1_545  A
C793        O799   1.317       .  A
C794       C1073   1.403       .  A
C794        H805   1.082       .  S
C795        C804   1.363       .  A
C795        C796   1.380       .  A
C796       C1077   1.403       .  A
C796        O802   1.317       .  A
C797       C1076   1.403   1_545  A
C797        H806   1.082       .  S
C798        C801   1.363       .  A
O799        C800   1.331       .  A
C800        C801   1.391       .  A
C801        H807   1.083       .  S
O802        C803   1.331       .  A
C803        C804   1.391       .  A
C804        H808   1.083       .  S
C809        C814   1.381       .  A
C809        O815   1.319       .  A
C810        C811   1.402       .  A
C810        H821   1.082       .  S
C811        C820   1.359       .  A
C811        C812   1.381       .  A
C812        O818   1.319       .  A
C813        C814   1.402       .  A
C813        H822   1.082       .  S
C814        C817   1.359       .  A
O815        C816   1.330       .  A
C816        C817   1.391       .  A
C817        H823   1.082       .  S
O818        C819   1.330       .  A
C819        C820   1.391       .  A
C820        H824   1.083       .  S
C825        C830   1.381       .  A
C825        C826   1.402       .  A
C825        O831   1.319       .  A
C826        C827   1.402       .  A
C826        H837   1.082       .  S
C827        C836   1.359       .  A
C827        C828   1.381       .  A
C828        C829   1.402       .  A
C828        O834   1.319       .  A
C829        C830   1.402       .  A
C829        H838   1.082       .  S
C830        C833   1.359       .  A
O831        C832   1.330       .  A
C832        C833   1.391       .  A
C833        H839   1.082       .  S
O834        C835   1.330       .  A
C835        C836   1.391       .  A
C836        H840   1.082       .  S
O841       Cr859   2.006       .  S
O841        C849   1.264       .  A
O842       Cr859   1.980       .  S
O842        C843   1.261       .  A
C843        O844   1.264       .  A
C843        C943   1.468       .  S
O844       Cr860   2.005       .  S
O845       Cr860   1.979       .  S
O845        C846   1.260       .  A
C846        O847   1.265       .  A
C846        C956   1.468       .  S
O847       Cr861   2.003       .  S
O848       Cr861   1.977       .  S
O848        C849   1.260       .  A
C849        C892   1.467       .  S
O850       Cr859   1.978       .  S
O850        C858   1.260       .  A
O851       Cr859   2.004       .  S
O851        C852   1.265       .  A
C852        O853   1.260       .  A
C852        C924   1.467       .  S
O853       Cr860   1.977       .  S
O854       Cr860   2.004       .  S
O854        C855   1.265       .  A
C855        O856   1.260       .  A
C855        C975   1.468       .  S
O856       Cr861   1.980       .  S
O857       Cr861   2.007       .  S
O857        C858   1.264       .  A
C858        C911   1.468       .  S
Cr859       O862   1.772       .  S
Cr860       O862   1.773       .  S
Cr861       O862   1.772       .  S
O863       Cr881   1.978       .  S
O863        C871   1.260       .  A
O864       Cr881   2.004       .  S
O864        C865   1.265       .  A
C865        O866   1.260       .  A
C865        C927   1.467       .  S
O866       Cr882   1.977       .  S
O867       Cr882   2.004       .  S
O867        C868   1.265       .  A
C868        O869   1.260       .  A
C868        C972   1.468       .  S
O869       Cr883   1.980       .  S
O870       Cr883   2.007       .  S
O870        C871   1.264       .  A
C871        C908   1.468       .  S
O872       Cr881   2.006       .  S
O872        C880   1.264       .  A
O873       Cr881   1.980       .  S
O873        C874   1.261       .  A
C874        O875   1.264       .  A
C874        C940   1.468       .  S
O875       Cr882   2.005       .  S
O876       Cr882   1.979       .  S
O876        C877   1.260       .  A
C877        O878   1.265       .  A
C877        C959   1.468       .  S
O878       Cr883   2.003       .  S
O879       Cr883   1.977       .  S
O879        C880   1.260       .  A
C880        C895   1.467       .  S
Cr881       O884   1.772       .  S
Cr882       O884   1.773       .  S
Cr883       O884   1.772       .  S
C885        C890   1.381       .  A
C885       C1026   1.403       .  A
C885        O891   1.317       .  A
C886       C1025   1.403       .  A
C886        H897   1.082       .  S
C887        C896   1.362       .  A
C887        C888   1.381       .  A
C888       C1029   1.403   1_655  A
C888        O894   1.317       .  A
C889       C1028   1.403   1_455  A
C889        H898   1.082       .  S
C890        C893   1.362       .  A
O891        C892   1.330       .  A
C892        C893   1.391       .  A
C893        H899   1.083       .  S
O894        C895   1.330       .  A
C895        C896   1.391       .  A
C896        H900   1.083       .  S
C901        C906   1.380       .  A
C901        C902   1.403   1_655  A
C901        O907   1.318       .  A
C902        H913   1.082       .  S
C903        C912   1.362       .  A
C903        C904   1.380       .  A
C904        C905   1.403       .  A
C904        O910   1.318       .  A
C905        H914   1.082       .  S
C906        C909   1.362       .  A
O907        C908   1.331       .  A
C908        C909   1.391       .  A
C909        H915   1.083       .  S
O910        C911   1.331       .  A
C911        C912   1.391       .  A
C912        H916   1.083       .  S
C917        C922   1.381       .  A
C917        C918   1.402       .  A
C917        O923   1.319       .  A
C918        H929   1.082       .  S
C919        C928   1.359       .  A
C919        C920   1.381       .  A
C920        C921   1.402       .  A
C920        O926   1.319       .  A
C921        H930   1.082       .  S
C922        C925   1.359       .  A
O923        C924   1.330       .  A
C924        C925   1.391       .  A
C925        H931   1.082       .  S
O926        C927   1.330       .  A
C927        C928   1.391       .  A
C928        H932   1.083       .  S
C933        C938   1.380       .  A
C933        O939   1.317       .  A
C934       C1075   1.402   1_554  A
C934        H945   1.082       .  S
C935       C1074   1.402       .  A
C935        C944   1.363       .  A
C935        C936   1.380       .  A
C936        O942   1.317       .  A
C937       C1078   1.402       .  A
C937        H946   1.082       .  S
C938       C1077   1.402   1_554  A
C938        C941   1.363       .  A
O939        C940   1.331       .  A
C940        C941   1.391       .  A
C941        H947   1.083       .  S
O942        C943   1.331       .  A
C943        C944   1.391       .  A
C944        H948   1.083       .  S
C949        C954   1.381       .  A
C949       C1090   1.402       .  A
C949        O955   1.319       .  A
C950       C1089   1.402   1_554  A
C950        C951   1.402       .  A
C950        H961   1.082       .  S
C951        C960   1.359       .  A
C951        C952   1.381       .  A
C952       C1093   1.402   1_554  A
C952        O958   1.319       .  A
C953       C1092   1.402       .  A
C953        C954   1.402       .  A
C953        H962   1.082       .  S
C954        C957   1.359       .  A
O955        C956   1.330       .  A
C956        C957   1.391       .  A
C957        H963   1.082       .  S
O958        C959   1.330       .  A
C959        C960   1.391       .  A
C960        H964   1.082       .  S
C965        C970   1.381       .  A
C965        C966   1.402       .  A
C965        O971   1.319       .  A
C966        C967   1.402       .  A
C966        H977   1.082       .  S
C967        C976   1.359       .  A
C967        C968   1.381       .  A
C968        C969   1.402       .  A
C968        O974   1.319       .  A
C969        C970   1.402       .  A
C969        H978   1.082       .  S
C970        C973   1.359       .  A
O971        C972   1.330       .  A
C972        C973   1.391       .  A
C973        H979   1.082       .  S
O974        C975   1.330       .  A
C975        C976   1.391       .  A
C976        H980   1.082       .  S
O981       Cr999   2.006       .  S
O981        C989   1.264       .  A
O982       Cr999   1.980       .  S
O982        C983   1.261       .  A
C983        O984   1.264       .  A
C983       C1083   1.468       .  S
O984      Cr1000   2.005       .  S
O985      Cr1000   1.979       .  S
O985        C986   1.260       .  A
C986        O987   1.265       .  A
C986       C1096   1.468       .  S
O987      Cr1001   2.003       .  S
O988      Cr1001   1.977       .  S
O988        C989   1.260       .  A
C989       C1032   1.467       .  S
O990       Cr999   1.978       .  S
O990        C998   1.260       .  A
O991       Cr999   2.004       .  S
O991        C992   1.265       .  A
C992        O993   1.260       .  A
C992       C1064   1.467       .  S
O993      Cr1000   1.977       .  S
O994      Cr1000   2.004       .  S
O994        C995   1.265       .  A
C995        O996   1.260       .  A
C995       C1115   1.468       .  S
O996      Cr1001   1.980       .  S
O997      Cr1001   2.007       .  S
O997        C998   1.264       .  A
C998       C1051   1.468       .  S
Cr999      O1002   1.772       .  S
Cr1000     O1002   1.773       .  S
Cr1001     O1002   1.772       .  S
O1003     Cr1021   1.978       .  S
O1003      C1011   1.260       .  A
O1004     Cr1021   2.004       .  S
O1004      C1005   1.265       .  A
C1005      O1006   1.260       .  A
C1005      C1067   1.467       .  S
O1006     Cr1022   1.977       .  S
O1007     Cr1022   2.004       .  S
O1007      C1008   1.265       .  A
C1008      O1009   1.260       .  A
C1008      C1112   1.468       .  S
O1009     Cr1023   1.980       .  S
O1010     Cr1023   2.007       .  S
O1010      C1011   1.264       .  A
C1011      C1048   1.468       .  S
O1012     Cr1021   2.006       .  S
O1012      C1020   1.264       .  A
O1013     Cr1021   1.980       .  S
O1013      C1014   1.260       .  A
C1014      O1015   1.264       .  A
C1014      C1080   1.468       .  S
O1015     Cr1022   2.005       .  S
O1016     Cr1022   1.979       .  S
O1016      C1017   1.260       .  A
C1017      O1018   1.265       .  A
C1017      C1099   1.468       .  S
O1018     Cr1023   2.003       .  S
O1019     Cr1023   1.977       .  S
O1019      C1020   1.260       .  A
C1020      C1035   1.467       .  S
Cr1021     O1024   1.772       .  S
Cr1022     O1024   1.773       .  S
Cr1023     O1024   1.772       .  S
C1025      C1030   1.381       .  A
C1025      O1031   1.317       .  A
C1026      H1037   1.082       .  S
C1027      C1036   1.362       .  A
C1027      C1028   1.381       .  A
C1028      O1034   1.317       .  A
C1029      H1038   1.082       .  S
C1030      C1033   1.362       .  A
O1031      C1032   1.330       .  A
C1032      C1033   1.391       .  A
C1033      H1039   1.083       .  S
O1034      C1035   1.330       .  A
C1035      C1036   1.391       .  A
C1036      H1040   1.083       .  S
C1041      C1046   1.380       .  A
C1041      C1042   1.403   1_655  A
C1041      O1047   1.318       .  A
C1042      H1053   1.082       .  S
C1043      C1052   1.362       .  A
C1043      C1044   1.380       .  A
C1044      C1045   1.403       .  A
C1044      O1050   1.318       .  A
C1045      H1054   1.082       .  S
C1046      C1049   1.362       .  A
O1047      C1048   1.331       .  A
C1048      C1049   1.391       .  A
C1049      H1055   1.083       .  S
O1050      C1051   1.331       .  A
C1051      C1052   1.391       .  A
C1052      H1056   1.083       .  S
C1057      C1062   1.381       .  A
C1057      C1058   1.402       .  A
C1057      O1063   1.319       .  A
C1058      H1069   1.082       .  S
C1059      C1068   1.359       .  A
C1059      C1060   1.381       .  A
C1060      C1061   1.402       .  A
C1060      O1066   1.319       .  A
C1061      H1070   1.082       .  S
C1062      C1065   1.359       .  A
O1063      C1064   1.330       .  A
C1064      C1065   1.391       .  A
C1065      H1071   1.082       .  S
O1066      C1067   1.330       .  A
C1067      C1068   1.391       .  A
C1068      H1072   1.083       .  S
C1073      C1078   1.380       .  A
C1073      O1079   1.317       .  A
C1074      H1085   1.082       .  S
C1075      C1084   1.363       .  A
C1075      C1076   1.380       .  A
C1076      O1082   1.317       .  A
C1077      H1086   1.082       .  S
C1078      C1081   1.363       .  A
O1079      C1080   1.331       .  A
C1080      C1081   1.391       .  A
C1081      H1087   1.083       .  S
O1082      C1083   1.331       .  A
C1083      C1084   1.391       .  A
C1084      H1088   1.083       .  S
C1089      C1094   1.381       .  A
C1089      O1095   1.319       .  A
C1090      C1091   1.402       .  A
C1090      H1101   1.082       .  S
C1091      C1100   1.359       .  A
C1091      C1092   1.381       .  A
C1092      O1098   1.319       .  A
C1093      C1094   1.402       .  A
C1093      H1102   1.082       .  S
C1094      C1097   1.359       .  A
O1095      C1096   1.330       .  A
C1096      C1097   1.391       .  A
C1097      H1103   1.082       .  S
O1098      C1099   1.330       .  A
C1099      C1100   1.391       .  A
C1100      H1104   1.083       .  S
C1105      C1110   1.381       .  A
C1105      C1106   1.402       .  A
C1105      O1111   1.319       .  A
C1106      C1107   1.402       .  A
C1106      H1117   1.082       .  S
C1107      C1116   1.359       .  A
C1107      C1108   1.381       .  A
C1108      C1109   1.402       .  A
C1108      O1114   1.319       .  A
C1109      C1110   1.402       .  A
C1109      H1118   1.082       .  S
C1110      C1113   1.359       .  A
O1111      C1112   1.330       .  A
C1112      C1113   1.391       .  A
C1113      H1119   1.082       .  S
O1114      C1115   1.330       .  A
C1115      C1116   1.391       .  A
C1116      H1120   1.082       .  S
