geometry optimzed in LAMMPS
_audit_creation_date              2020-11-30 
_audit_creation_method            'lammps2cif' 
_symmetry_space_group_name_H-M    'P1' 
_symmetry_Int_Tables_number       1 
_symmetry_cell_setting            triclinic 
loop_ 
_symmetry_equiv_pos_as_xyz 
  x,y,z 
_cell_length_a                    43.76216697 
_cell_length_b                    43.75819302054144 
_cell_length_c                    35.58139069201851 
_cell_angle_alpha                 89.99956152034544 
_cell_angle_beta                  90.00042450036668 
_cell_angle_gamma                 90.00028502423028 
loop_ 
_atom_site_label 
_atom_site_type_symbol 
_atom_site_fract_x 
_atom_site_fract_y 
_atom_site_fract_z 
_atom_site_charge 
C1          C  0.25016953  0.11231328  0.39241231     0.89000
C2          C  0.22231794  0.13325953  0.39726483    -0.51200
C3          C  0.22244274  0.15764304  0.37342943     0.11900
C4          C  0.25016801  0.15890325  0.34708121     0.22900
C5          C  0.25016971  0.10324699  0.35069673    -0.51900
C6          C  0.25016863  0.12781948  0.32706242     0.12000
C7          C  0.27802086  0.13326138  0.39726567    -0.51500
C8          C  0.27789368  0.15764576  0.37342998     0.12600
H9          H  0.20430851  0.12928601  0.41771536     0.17100
H10         H  0.25016667  0.17885952  0.32773078     0.02900
H11         H  0.25016834  0.07975233  0.34082884     0.17400
H12         H  0.29602897  0.12929080  0.41771933     0.17200
C13         C  0.11108515  0.25130017  0.39239056     0.89000
C14         C  0.13200979  0.27916900  0.39727793    -0.51200
C15         C  0.15640410  0.27907387  0.37345874     0.11900
C16         C  0.15769266  0.25135711  0.34709166     0.22900
C17         C  0.10203931  0.25131357  0.35066705    -0.51900
C18         C  0.12662060  0.25134430  0.32704869     0.12000
C19         C  0.13204815  0.22346037  0.39723686    -0.51500
C20         C  0.15644017  0.22361472  0.37342009     0.12600
H21         H  0.12801577  0.29716567  0.41774146     0.17100
H22         H  0.17765547  0.25137896  0.32775602     0.02900
H23         H  0.07855089  0.25129824  0.34078272     0.17400
H24         H  0.12807865  0.20543573  0.41767109     0.17200
C25         C  0.38920782  0.25134702  0.39243249     0.89000
C26         C  0.36824771  0.22350522  0.39727356    -0.51200
C27         C  0.34386248  0.22365278  0.37344692     0.11900
C28         C  0.34261226  0.25139290  0.34711454     0.22900
C29         C  0.39826450  0.25135836  0.35071327    -0.51900
C30         C  0.37368990  0.25138228  0.32708459     0.12000
C31         C  0.36827819  0.27921378  0.39730866    -0.51500
C32         C  0.34388924  0.27911241  0.37347902     0.12600
H33         H  0.37221634  0.20548153  0.41770892     0.17100
H34         H  0.32265416  0.25140868  0.32777015     0.02900
H35         H  0.42175581  0.25134064  0.34083885     0.17400
H36         H  0.37226344  0.29721074  0.41777271     0.17200
C37         C  0.25012360  0.39042255  0.39240086     0.89000
C38         C  0.27797721  0.36948235  0.39728355    -0.51200
C39         C  0.27786068  0.34507771  0.37348037     0.11900
C40         C  0.25013323  0.34379192  0.34712933     0.22900
C41         C  0.25012682  0.39945222  0.35067084    -0.51900
C42         C  0.25013249  0.37485942  0.32706533     0.12000
C43         C  0.22227304  0.36947634  0.39727539    -0.51500
C44         C  0.22240023  0.34507121  0.37347201     0.12600
H45         H  0.29598657  0.37347907  0.41772746     0.17100
H46         H  0.25013794  0.32381973  0.32780554     0.02900
H47         H  0.25012844  0.42293852  0.34077343     0.17400
H48         H  0.20425980  0.37346804  0.41771557     0.17200
C49         C  0.25015763  0.11230527  0.14710438     0.89000
C50         C  0.27801235  0.13324859  0.14225497    -0.51200
C51         C  0.27788751  0.15763330  0.16608844     0.11900
C52         C  0.25015928  0.15889722  0.19243162     0.22900
C53         C  0.25015157  0.10324082  0.18882096    -0.51900
C54         C  0.25015289  0.12781455  0.21245312     0.12000
C55         C  0.22230934  0.13325612  0.14224472    -0.51500
C56         C  0.22243645  0.15764114  0.16607863     0.12600
H57         H  0.29602363  0.12927263  0.12180712     0.17100
H58         H  0.25016038  0.17885420  0.21178045     0.02900
H59         H  0.25014939  0.07974657  0.19869083     0.17400
H60         H  0.20430196  0.12928548  0.12179029     0.17200
C61         C  0.11111724  0.25133526  0.14708166     0.89000
C62         C  0.13207697  0.22349340  0.14224112    -0.51200
C63         C  0.15646343  0.22364234  0.16606563     0.11900
C64         C  0.15771505  0.25138320  0.19239616     0.22900
C65         C  0.10206256  0.25134834  0.18880171    -0.51900
C66         C  0.12663846  0.25137345  0.21242851     0.12000
C67         C  0.13204682  0.27920185  0.14220175    -0.51500
C68         C  0.15643687  0.27910132  0.16602935     0.12600
H69         H  0.12810795  0.20546916  0.12180630     0.17100
H70         H  0.17767380  0.25140001  0.21173853     0.02900
H71         H  0.07857270  0.25133139  0.19867765     0.17400
H72         H  0.12806123  0.29719829  0.12173542     0.17200
C73         C  0.38924196  0.25129539  0.14712300     0.89000
C74         C  0.36831644  0.27916311  0.14223409    -0.51200
C75         C  0.34392262  0.27906836  0.16605397     0.11900
C76         C  0.34263531  0.25135216  0.19242319     0.22900
C77         C  0.39828860  0.25131092  0.18884624    -0.51900
C78         C  0.37370774  0.25134165  0.21246527     0.12000
C79         C  0.36828001  0.22345442  0.14227957    -0.51500
C80         C  0.34388842  0.22360838  0.16609700     0.12600
H81         H  0.37231031  0.29716001  0.12176896     0.17100
H82         H  0.32267285  0.25137368  0.21175964     0.02900
H83         H  0.42177647  0.25129790  0.19872952     0.17400
H84         H  0.37225002  0.20542908  0.12184703     0.17200
C85         C  0.25019860  0.39041234  0.14709557     0.89000
C86         C  0.22234840  0.36946798  0.14221205    -0.51200
C87         C  0.22246596  0.34506537  0.16601844     0.11900
C88         C  0.25019130  0.34378515  0.19237324     0.22900
C89         C  0.25019062  0.39944513  0.18882435    -0.51700
C90         C  0.25018628  0.37485416  0.21243320     0.12000
C91         C  0.27805257  0.36946950  0.14222734    -0.51500
C92         C  0.27792644  0.34506589  0.16603410     0.12600
H93         H  0.20433935  0.37346133  0.12176566     0.17100
H94         H  0.25018747  0.32381412  0.21170008     0.02900
H95         H  0.25018529  0.42293219  0.19871871     0.17400
H96         H  0.29606627  0.37346180  0.12178869     0.17200
O97         O  0.03112004  0.22567930  0.05782398    -0.71900
O98         O  0.46920467  0.22568475  0.48168644    -0.71900
O99         O  0.03110059  0.22567861  0.48166676    -0.72000
O100        O  0.46922443  0.22567670  0.05784335    -0.72000
O101        O  0.46922973  0.27672485  0.05784262    -0.72000
O102        O  0.03109868  0.27672672  0.48167401    -0.71900
O103        O  0.46921367  0.27673295  0.48169864    -0.71900
O104        O  0.03111450  0.27672754  0.05781818    -0.72000
Ni105      Ni  0.00016236  0.22384194  0.01975494     1.25400
Ni106      Ni  0.00016421  0.27856101  0.01975836     1.25400
C107        C  0.04122090  0.25120724  0.07021330     0.90300
C108        C  0.45910514  0.25121444  0.46930070     0.90200
C109        C  0.04119794  0.25120510  0.46927126     0.90200
C110        C  0.45912889  0.25120257  0.07024213     0.90400
O111        O  0.22464556  0.47042044  0.05783714    -0.71900
O112        O  0.22463128  0.03232271  0.48168910    -0.71900
O113        O  0.22462574  0.47042718  0.48168160    -0.72000
O114        O  0.22464233  0.03231604  0.05783598    -0.72000
O115        O  0.27568615  0.03231683  0.05782356    -0.72000
O116        O  0.27566908  0.47042490  0.48166455    -0.71900
O117        O  0.27567515  0.03231964  0.48167706    -0.71900
O118        O  0.27568891  0.47042150  0.05781969    -0.72000
Ni119      Ni  0.22280079  0.00137114  0.01976152     1.25400
Ni120      Ni  0.27751500  0.00137020  0.01974574     1.25400
C121        C  0.25017088  0.46032000  0.07022638     0.90300
C122        C  0.25015248  0.04242431  0.46929043     0.90200
C123        C  0.25014363  0.46032681  0.46927305     0.90200
C124        C  0.25016574  0.04241823  0.07022408     0.90400
C125        C  0.25018179  0.43687306  0.09838473    -0.10700
C126        C  0.25019592  0.41643733  0.12110467    -0.12300
C127        C  0.41525611  0.25125257  0.12112312    -0.10700
C128        C  0.43568743  0.25121371  0.09840176    -0.12300
C129        C  0.32106498  0.30273961  0.16601629    -0.10700
C130        C  0.30159422  0.32220448  0.16601416    -0.12300
C131        C  0.08510690  0.25128705  0.12107661    -0.10700
C132        C  0.06467249  0.25122777  0.09835972    -0.12300
C133        C  0.17930619  0.30276132  0.16599292    -0.10700
C134        C  0.19878993  0.32221310  0.16599460    -0.12300
C135        C  0.25016047  0.08629879  0.12109418    -0.10700
C136        C  0.25016689  0.06586623  0.09837443    -0.12300
C137        C  0.19878874  0.18051529  0.16606631    -0.10700
C138        C  0.17933127  0.19998871  0.16606730    -0.12300
C139        C  0.30154522  0.18049753  0.16608605    -0.10700
C140        C  0.32101279  0.19996134  0.16609184    -0.12300
C141        C  0.25016694  0.37751704  0.25280767    -0.10700
C142        C  0.25014887  0.37751886  0.28669054    -0.12300
C143        C  0.25012339  0.41644879  0.41838930    -0.10700
C144        C  0.25013337  0.43688344  0.44111041    -0.12300
C145        C  0.37638080  0.25135933  0.25283521    -0.10700
C146        C  0.37637448  0.25137335  0.28671595    -0.12300
C147        C  0.41521729  0.25129949  0.41843926    -0.10700
C148        C  0.43565232  0.25123895  0.44115551    -0.12300
C149        C  0.32102110  0.30277383  0.37351082    -0.10700
C150        C  0.30153801  0.32222643  0.37350635    -0.12300
C151        C  0.12394878  0.25135820  0.28667846    -0.10700
C152        C  0.12395548  0.25136841  0.25279759    -0.12300
C153        C  0.08507082  0.25125713  0.41839014    -0.10700
C154        C  0.06463947  0.25121759  0.44111153    -0.12300
C155        C  0.17926217  0.30274462  0.37349615    -0.10700
C156        C  0.19873368  0.32220872  0.37349602    -0.12300
C157        C  0.25016193  0.12512865  0.28669742    -0.10700
C158        C  0.25015580  0.12512668  0.25281850    -0.12300
C159        C  0.25016462  0.08630777  0.41842397    -0.10700
C160        C  0.25015397  0.06587457  0.44114296    -0.12300
C161        C  0.19878595  0.18050755  0.37343297    -0.10700
C162        C  0.17931732  0.19996981  0.37342747    -0.12300
C163        C  0.32099671  0.19999654  0.37344209    -0.10700
C164        C  0.30154114  0.18052078  0.37344124    -0.12300
C165        C  0.25016929  0.11231325  0.89241240     0.89000
C166        C  0.22231780  0.13325948  0.89726495    -0.51200
C167        C  0.22244266  0.15764296  0.87342959     0.11900
C168        C  0.25016807  0.15890325  0.84708124     0.22900
C169        C  0.25016962  0.10324692  0.85069679    -0.51900
C170        C  0.25016863  0.12781945  0.82706248     0.12000
C171        C  0.27802068  0.13326134  0.89726579    -0.51500
C172        C  0.27789372  0.15764564  0.87342994     0.12600
H173        H  0.20430775  0.12928582  0.91771585     0.17100
H174        H  0.25016698  0.17885905  0.82773106     0.02900
H175        H  0.25016833  0.07975254  0.84082927     0.17400
H176        H  0.29602874  0.12929036  0.91771865     0.17200
C177        C  0.11108520  0.25129999  0.89239062     0.89000
C178        C  0.13200991  0.27916882  0.89727794    -0.51200
C179        C  0.15640420  0.27907386  0.87345865     0.11900
C180        C  0.15769262  0.25135710  0.84709162     0.22900
C181        C  0.10203934  0.25131357  0.85066705    -0.51900
C182        C  0.12662063  0.25134430  0.82704866     0.12000
C183        C  0.13204819  0.22346025  0.89723690    -0.51500
C184        C  0.15644011  0.22361464  0.87342003     0.12600
H185        H  0.12801580  0.29716555  0.91774136     0.17100
H186        H  0.17765566  0.25137876  0.82775554     0.02900
H187        H  0.07855087  0.25129869  0.84078273     0.17400
H188        H  0.12807857  0.20543510  0.91767124     0.17200
C189        C  0.38920766  0.25134717  0.89243275     0.89000
C190        C  0.36824752  0.22350527  0.89727367    -0.51200
C191        C  0.34386233  0.22365291  0.87344692     0.11900
C192        C  0.34261212  0.25139303  0.84711463     0.22900
C193        C  0.39826440  0.25135845  0.85071342    -0.51900
C194        C  0.37368968  0.25138227  0.82708471     0.12000
C195        C  0.36827814  0.27921394  0.89730875    -0.51500
C196        C  0.34388927  0.27911262  0.87347912     0.12600
H197        H  0.37221591  0.20548169  0.91770882     0.17100
H198        H  0.32265392  0.25140883  0.82777019     0.02900
H199        H  0.42175490  0.25134036  0.84083926     0.17400
H200        H  0.37226325  0.29721147  0.91777371     0.17200
C201        C  0.25012360  0.39042266  0.89240083     0.89000
C202        C  0.27797715  0.36948242  0.89728356    -0.51200
C203        C  0.27786066  0.34507770  0.87348044     0.11900
C204        C  0.25013320  0.34379190  0.84712941     0.22900
C205        C  0.25012682  0.39945229  0.85067077    -0.51900
C206        C  0.25013247  0.37485940  0.82706531     0.12000
C207        C  0.22227308  0.36947636  0.89727537    -0.51500
C208        C  0.22240023  0.34507117  0.87347204     0.12600
H209        H  0.29598661  0.37347939  0.91772764     0.17100
H210        H  0.25013795  0.32381943  0.82780534     0.02900
H211        H  0.25012844  0.42293876  0.84077302     0.17400
H212        H  0.20425980  0.37346820  0.91771554     0.17200
C213        C  0.25015745  0.11230521  0.64710444     0.89000
C214        C  0.27801229  0.13324848  0.64225500    -0.51200
C215        C  0.27788747  0.15763324  0.66608859     0.11900
C216        C  0.25015923  0.15889728  0.69243164     0.22900
C217        C  0.25015142  0.10324082  0.68882099    -0.51900
C218        C  0.25015271  0.12781452  0.71245311     0.12000
C219        C  0.22230930  0.13325607  0.64224461    -0.51500
C220        C  0.22243642  0.15764112  0.66607849     0.12600
H221        H  0.29602280  0.12927235  0.62180823     0.17100
H222        H  0.25016039  0.17885409  0.71177993     0.02900
H223        H  0.25014879  0.07974642  0.69869099     0.17400
H224        H  0.20430222  0.12928556  0.62178965     0.17200
C225        C  0.11111715  0.25133529  0.64708180     0.89000
C226        C  0.13207695  0.22349345  0.64224124    -0.51200
C227        C  0.15646346  0.22364239  0.66606568     0.11900
C228        C  0.15771498  0.25138324  0.69239617     0.22900
C229        C  0.10206258  0.25134834  0.68880175    -0.51900
C230        C  0.12663834  0.25137348  0.71242860     0.12000
C231        C  0.13204671  0.27920188  0.64220177    -0.51500
C232        C  0.15643680  0.27910138  0.66602936     0.12600
H233        H  0.12810805  0.20546935  0.62180637     0.17100
H234        H  0.17767395  0.25140006  0.71173888     0.02900
H235        H  0.07857178  0.25133140  0.69867800     0.17400
H236        H  0.12806106  0.29719810  0.62173512     0.17200
C237        C  0.38924214  0.25129521  0.64712327     0.89000
C238        C  0.36831649  0.27916299  0.64223420    -0.51200
C239        C  0.34392259  0.27906813  0.66605417     0.11900
C240        C  0.34263535  0.25135206  0.69242329     0.22900
C241        C  0.39828880  0.25131094  0.68884636    -0.51900
C242        C  0.37370800  0.25134163  0.71246531     0.12000
C243        C  0.36828005  0.22345433  0.64227970    -0.51500
C244        C  0.34388845  0.22360830  0.66609705     0.12600
H245        H  0.37230990  0.29715869  0.62177007     0.17100
H246        H  0.32267299  0.25137369  0.71175936     0.02900
H247        H  0.42177756  0.25129746  0.69873008     0.17400
H248        H  0.37225009  0.20542891  0.62184715     0.17200
C249        C  0.25019869  0.39041237  0.64709546     0.89000
C250        C  0.22234844  0.36946802  0.64221196    -0.51200
C251        C  0.22246598  0.34506543  0.66601839     0.11900
C252        C  0.25019132  0.34378518  0.69237328     0.22900
C253        C  0.25019073  0.39944511  0.68882427    -0.51700
C254        C  0.25018628  0.37485422  0.71243312     0.12000
C255        C  0.27805261  0.36946960  0.64222731    -0.51500
C256        C  0.27792646  0.34506594  0.66603388     0.12600
H257        H  0.20433943  0.37346150  0.62176582     0.17100
H258        H  0.25018743  0.32381462  0.71169988     0.02900
H259        H  0.25018494  0.42293211  0.69871854     0.17400
H260        H  0.29606657  0.37346185  0.62178785     0.17200
O261        O  0.03112008  0.22567922  0.55782404    -0.71900
O262        O  0.46920464  0.22568488  0.98168630    -0.71900
O263        O  0.03110055  0.22567854  0.98166667    -0.72000
O264        O  0.46922448  0.22567666  0.55784344    -0.72000
O265        O  0.46922982  0.27672472  0.55784267    -0.72000
O266        O  0.03109868  0.27672676  0.98167384    -0.71900
O267        O  0.46921361  0.27673300  0.98169848    -0.71900
O268        O  0.03111454  0.27672735  0.55781823    -0.72000
Ni269      Ni  0.00016239  0.22384195  0.51975503     1.25400
Ni270      Ni  0.00016421  0.27856096  0.51975844     1.25400
C271        C  0.04122089  0.25120712  0.57021344     0.90300
C272        C  0.45910506  0.25121452  0.96930059     0.90200
C273        C  0.04119797  0.25120506  0.96927127     0.90200
C274        C  0.45912895  0.25120250  0.57024224     0.90400
O275        O  0.22464560  0.47042036  0.55783726    -0.71900
O276        O  0.22463132  0.03232273  0.98168901    -0.71900
O277        O  0.22462568  0.47042731  0.98168140    -0.72000
O278        O  0.22464231  0.03231612  0.55783603    -0.72000
O279        O  0.27568613  0.03231675  0.55782344    -0.72000
O280        O  0.27566903  0.47042476  0.98166460    -0.71900
O281        O  0.27567518  0.03231967  0.98167718    -0.71900
O282        O  0.27568894  0.47042149  0.55781957    -0.72000
Ni283      Ni  0.22280079  0.00137118  0.51976157     1.25400
Ni284      Ni  0.27751498  0.00137017  0.51974565     1.25400
C285        C  0.25017095  0.46031995  0.57022638     0.90300
C286        C  0.25015252  0.04242422  0.96929030     0.90200
C287        C  0.25014358  0.46032683  0.96927300     0.90200
C288        C  0.25016576  0.04241825  0.57022402     0.90400
C289        C  0.25018188  0.43687316  0.59838482    -0.10700
C290        C  0.25019595  0.41643734  0.62110463    -0.12300
C291        C  0.41525611  0.25125256  0.62112320    -0.10700
C292        C  0.43568741  0.25121372  0.59840181    -0.12300
C293        C  0.32106499  0.30273952  0.66601633    -0.10700
C294        C  0.30159423  0.32220446  0.66601407    -0.12300
C295        C  0.08510688  0.25128695  0.62107664    -0.10700
C296        C  0.06467251  0.25122778  0.59835971    -0.12300
C297        C  0.17930608  0.30276142  0.66599283    -0.10700
C298        C  0.19878985  0.32221318  0.66599460    -0.12300
C299        C  0.25016040  0.08629880  0.62109412    -0.10700
C300        C  0.25016697  0.06586631  0.59837427    -0.12300
C301        C  0.19878883  0.18051537  0.66606616    -0.10700
C302        C  0.17933137  0.19998880  0.66606720    -0.12300
C303        C  0.30154526  0.18049746  0.66608606    -0.10700
C304        C  0.32101283  0.19996126  0.66609194    -0.12300
C305        C  0.25016696  0.37751708  0.75280758    -0.10700
C306        C  0.25014892  0.37751871  0.78669045    -0.12300
C307        C  0.25012330  0.41644899  0.91838928    -0.10700
C308        C  0.25013342  0.43688353  0.94111048    -0.12300
C309        C  0.37638084  0.25135927  0.75283524    -0.10700
C310        C  0.37637447  0.25137327  0.78671600    -0.12300
C311        C  0.41521720  0.25129952  0.91843939    -0.10700
C312        C  0.43565230  0.25123886  0.94115547    -0.12300
C313        C  0.32102106  0.30277387  0.87351089    -0.10700
C314        C  0.30153807  0.32222652  0.87350637    -0.12300
C315        C  0.12394883  0.25135828  0.78667849    -0.10700
C316        C  0.12395541  0.25136851  0.75279764    -0.12300
C317        C  0.08507082  0.25125711  0.91839023    -0.10700
C318        C  0.06463943  0.25121756  0.94111155    -0.12300
C319        C  0.17926229  0.30274457  0.87349621    -0.10700
C320        C  0.19873363  0.32220882  0.87349600    -0.12300
C321        C  0.25016187  0.12512863  0.78669739    -0.10700
C322        C  0.25015578  0.12512664  0.75281846    -0.12300
C323        C  0.25016457  0.08630776  0.91842397    -0.10700
C324        C  0.25015388  0.06587455  0.94114291    -0.12300
C325        C  0.19878595  0.18050755  0.87343282    -0.10700
C326        C  0.17931734  0.19996984  0.87342747    -0.12300
C327        C  0.32099667  0.19999659  0.87344194    -0.10700
C328        C  0.30154109  0.18052083  0.87344136    -0.12300
C329        C  0.25016950  0.61231328  0.39241231     0.89000
C330        C  0.22231797  0.63325955  0.39726487    -0.51200
C331        C  0.22244282  0.65764307  0.37342949     0.11900
C332        C  0.25016812  0.65890327  0.34708127     0.22900
C333        C  0.25016968  0.60324703  0.35069670    -0.51900
C334        C  0.25016864  0.62781953  0.32706243     0.12000
C335        C  0.27802085  0.63326135  0.39726572    -0.51500
C336        C  0.27789378  0.65764572  0.37343001     0.12600
H337        H  0.20430847  0.62928603  0.41771549     0.17100
H338        H  0.25016677  0.67885954  0.32773093     0.02900
H339        H  0.25016831  0.57975236  0.34082877     0.17400
H340        H  0.29602915  0.62929047  0.41771924     0.17200
C341        C  0.11108520  0.75129999  0.39239058     0.89000
C342        C  0.13200983  0.77916883  0.39727799    -0.51200
C343        C  0.15640419  0.77907381  0.37345875     0.11900
C344        C  0.15769266  0.75135712  0.34709173     0.22900
C345        C  0.10203942  0.75131355  0.35066700    -0.51900
C346        C  0.12662072  0.75134431  0.32704862     0.12000
C347        C  0.13204819  0.72346030  0.39723687    -0.51500
C348        C  0.15644021  0.72361474  0.37342021     0.12600
H349        H  0.12801564  0.79716547  0.41774119     0.17100
H350        H  0.17765602  0.75137884  0.32775589     0.02900
H351        H  0.07855090  0.75129863  0.34078254     0.17400
H352        H  0.12807861  0.70543508  0.41767136     0.17200
C353        C  0.38920776  0.75134710  0.39243270     0.89000
C354        C  0.36824764  0.72350525  0.39727369    -0.51200
C355        C  0.34386247  0.72365284  0.37344703     0.11900
C356        C  0.34261222  0.75139299  0.34711460     0.22900
C357        C  0.39826443  0.75135839  0.35071336    -0.51900
C358        C  0.37368981  0.75138224  0.32708470     0.12000
C359        C  0.36827826  0.77921391  0.39730880    -0.51500
C360        C  0.34388939  0.77911260  0.37347915     0.12600
H361        H  0.37221626  0.70548151  0.41770902     0.17100
H362        H  0.32265459  0.75140880  0.32777046     0.02900
H363        H  0.42175509  0.75134032  0.34083915     0.17400
H364        H  0.37226369  0.79721134  0.41777317     0.17200
C365        C  0.25012372  0.89042259  0.39240078     0.89000
C366        C  0.27797725  0.86948233  0.39728346    -0.51200
C367        C  0.27786074  0.84507770  0.37348032     0.11900
C368        C  0.25013329  0.84379188  0.34712933     0.22900
C369        C  0.25012686  0.89945232  0.35067080    -0.51900
C370        C  0.25013249  0.87485944  0.32706532     0.12000
C371        C  0.22227316  0.86947636  0.39727544    -0.51500
C372        C  0.22240035  0.84507116  0.37347204     0.12600
H373        H  0.29598674  0.87347915  0.41772737     0.17100
H374        H  0.25013801  0.82381965  0.32780564     0.02900
H375        H  0.25012839  0.92293860  0.34077340     0.17400
H376        H  0.20426046  0.87346809  0.41771527     0.17200
C377        C  0.25015763  0.61230521  0.14710434     0.89000
C378        C  0.27801237  0.63324852  0.14225494    -0.51200
C379        C  0.27788758  0.65763322  0.16608836     0.11900
C380        C  0.25015932  0.65889718  0.19243160     0.22900
C381        C  0.25015152  0.60324081  0.18882094    -0.51900
C382        C  0.25015284  0.62781446  0.21245307     0.12000
C383        C  0.22230935  0.63325607  0.14224465    -0.51500
C384        C  0.22243647  0.65764107  0.16607855     0.12600
H385        H  0.29602377  0.62927233  0.12180706     0.17100
H386        H  0.25016047  0.67885371  0.21178018     0.02900
H387        H  0.25014934  0.57974637  0.19869093     0.17400
H388        H  0.20430202  0.62928546  0.12179013     0.17200
C389        C  0.11111730  0.75133521  0.14708180     0.89000
C390        C  0.13207700  0.72349338  0.14224125    -0.51200
C391        C  0.15646351  0.72364233  0.16606571     0.11900
C392        C  0.15771512  0.75138319  0.19239618     0.22900
C393        C  0.10206271  0.75134837  0.18880184    -0.51900
C394        C  0.12663861  0.75137350  0.21242865     0.12000
C395        C  0.13204676  0.77920181  0.14220174    -0.51500
C396        C  0.15643690  0.77910131  0.16602939     0.12600
H397        H  0.12810798  0.70546917  0.12180650     0.17100
H398        H  0.17767429  0.75139999  0.21173872     0.02900
H399        H  0.07857289  0.75133146  0.19867780     0.17400
H400        H  0.12806102  0.79719784  0.12173564     0.17200
C401        C  0.38924193  0.75129522  0.14712319     0.89000
C402        C  0.36831641  0.77916304  0.14223422    -0.51200
C403        C  0.34392255  0.77906818  0.16605427     0.11900
C404        C  0.34263526  0.75135203  0.19242333     0.22900
C405        C  0.39828860  0.75131082  0.18884636    -0.51900
C406        C  0.37370770  0.75134151  0.21246538     0.12000
C407        C  0.36827994  0.72345436  0.14227967    -0.51500
C408        C  0.34388833  0.72360831  0.16609705     0.12600
H409        H  0.37230999  0.79715892  0.12177029     0.17100
H410        H  0.32267273  0.75137360  0.21175978     0.02900
H411        H  0.42177637  0.75129738  0.19872963     0.17400
H412        H  0.37225000  0.70542897  0.12184703     0.17200
C413        C  0.25019885  0.89041237  0.14709559     0.89000
C414        C  0.22234856  0.86946804  0.14221204    -0.51200
C415        C  0.22246607  0.84506537  0.16601845     0.11900
C416        C  0.25019129  0.84378511  0.19237324     0.22900
C417        C  0.25019075  0.89944509  0.18882437    -0.51700
C418        C  0.25018632  0.87485416  0.21243320     0.12000
C419        C  0.27805270  0.86946950  0.14222737    -0.51500
C420        C  0.27792651  0.84506587  0.16603402     0.12600
H421        H  0.20434013  0.87346129  0.12176604     0.17100
H422        H  0.25018715  0.82381407  0.21169997     0.02900
H423        H  0.25018528  0.92293234  0.19871885     0.17400
H424        H  0.29606690  0.87346188  0.12178827     0.17200
O425        O  0.03112010  0.72567923  0.05782393    -0.71900
O426        O  0.46920466  0.72568487  0.48168647    -0.71900
O427        O  0.03110056  0.72567862  0.48166684    -0.72000
O428        O  0.46922441  0.72567666  0.05784337    -0.72000
O429        O  0.46922979  0.77672472  0.05784262    -0.72000
O430        O  0.03109869  0.77672674  0.48167402    -0.71900
O431        O  0.46921365  0.77673299  0.48169863    -0.71900
O432        O  0.03111452  0.77672737  0.05781820    -0.72000
Ni433      Ni  0.00016243  0.72384193  0.01975494     1.25400
Ni434      Ni  0.00016421  0.77856094  0.01975837     1.25400
C435        C  0.04122091  0.75120714  0.07021339     0.90300
C436        C  0.45910511  0.75121450  0.46930070     0.90200
C437        C  0.04119785  0.75120510  0.46927124     0.90200
C438        C  0.45912888  0.75120250  0.07024214     0.90400
O439        O  0.22464554  0.97042036  0.05783716    -0.71900
O440        O  0.22463135  0.53232262  0.48168903    -0.71900
O441        O  0.22462567  0.97042728  0.48168153    -0.72000
O442        O  0.22464236  0.53231610  0.05783600    -0.72000
O443        O  0.27568618  0.53231676  0.05782351    -0.72000
O444        O  0.27566902  0.97042484  0.48166457    -0.71900
O445        O  0.27567521  0.53231965  0.48167714    -0.71900
O446        O  0.27568889  0.97042156  0.05781970    -0.72000
Ni447      Ni  0.22280078  0.50137121  0.01976154     1.25400
Ni448      Ni  0.27751500  0.50137016  0.01974570     1.25400
C449        C  0.25017088  0.96031993  0.07022633     0.90300
C450        C  0.25015253  0.54242424  0.46929038     0.90200
C451        C  0.25014355  0.96032684  0.46927303     0.90200
C452        C  0.25016580  0.54241824  0.07022403     0.90400
C453        C  0.25018177  0.93687308  0.09838473    -0.10700
C454        C  0.25019601  0.91643731  0.12110462    -0.12300
C455        C  0.41525608  0.75125254  0.12112318    -0.10700
C456        C  0.43568739  0.75121371  0.09840178    -0.12300
C457        C  0.32106498  0.80273952  0.16601632    -0.10700
C458        C  0.30159425  0.82220444  0.16601418    -0.12300
C459        C  0.08510695  0.75128700  0.12107671    -0.10700
C460        C  0.06467252  0.75122785  0.09835982    -0.12300
C461        C  0.17930617  0.80276138  0.16599286    -0.10700
C462        C  0.19878990  0.82221319  0.16599457    -0.12300
C463        C  0.25016043  0.58629876  0.12109415    -0.10700
C464        C  0.25016693  0.56586624  0.09837434    -0.12300
C465        C  0.19878880  0.68051529  0.16606631    -0.10700
C466        C  0.17933134  0.69998871  0.16606729    -0.12300
C467        C  0.30154522  0.68049752  0.16608605    -0.10700
C468        C  0.32101276  0.69996130  0.16609185    -0.12300
C469        C  0.25016691  0.87751708  0.25280767    -0.10700
C470        C  0.25014883  0.87751874  0.28669053    -0.12300
C471        C  0.25012345  0.91644887  0.41838926    -0.10700
C472        C  0.25013330  0.93688347  0.44111044    -0.12300
C473        C  0.37638078  0.75135924  0.25283526    -0.10700
C474        C  0.37637450  0.75137326  0.28671600    -0.12300
C475        C  0.41521730  0.75129952  0.41843928    -0.10700
C476        C  0.43565232  0.75123885  0.44115553    -0.12300
C477        C  0.32102112  0.80277388  0.37351079    -0.10700
C478        C  0.30153809  0.82222650  0.37350631    -0.12300
C479        C  0.12394895  0.75135828  0.28667847    -0.10700
C480        C  0.12395551  0.75136851  0.25279764    -0.12300
C481        C  0.08507080  0.75125710  0.41839012    -0.10700
C482        C  0.06463948  0.75121763  0.44111157    -0.12300
C483        C  0.17926222  0.80274463  0.37349625    -0.10700
C484        C  0.19873365  0.82220882  0.37349609    -0.12300
C485        C  0.25016190  0.62512874  0.28669742    -0.10700
C486        C  0.25015576  0.62512665  0.25281850    -0.12300
C487        C  0.25016464  0.58630775  0.41842391    -0.10700
C488        C  0.25015385  0.56587460  0.44114297    -0.12300
C489        C  0.19878603  0.68050761  0.37343301    -0.10700
C490        C  0.17931729  0.69996978  0.37342754    -0.12300
C491        C  0.32099677  0.69999653  0.37344203    -0.10700
C492        C  0.30154116  0.68052083  0.37344122    -0.12300
C493        C  0.25016947  0.61231324  0.89241232     0.89000
C494        C  0.22231790  0.63325945  0.89726493    -0.51200
C495        C  0.22244274  0.65764296  0.87342951     0.11900
C496        C  0.25016807  0.65890319  0.84708115     0.22900
C497        C  0.25016970  0.60324693  0.85069675    -0.51900
C498        C  0.25016866  0.62781942  0.82706241     0.12000
C499        C  0.27802084  0.63326138  0.89726564    -0.51500
C500        C  0.27789367  0.65764570  0.87342988     0.12600
H501        H  0.20430838  0.62928586  0.91771543     0.17100
H502        H  0.25016703  0.67885897  0.82773091     0.02900
H503        H  0.25016836  0.57975244  0.84082915     0.17400
H504        H  0.29602867  0.62929077  0.91771850     0.17200
C505        C  0.11108519  0.75130003  0.89239044     0.89000
C506        C  0.13200986  0.77916883  0.89727785    -0.51200
C507        C  0.15640421  0.77907380  0.87345859     0.11900
C508        C  0.15769271  0.75135712  0.84709156     0.22900
C509        C  0.10203936  0.75131357  0.85066696    -0.51900
C510        C  0.12662068  0.75134423  0.82704859     0.12000
C511        C  0.13204819  0.72346029  0.89723680    -0.51500
C512        C  0.15644021  0.72361468  0.87341992     0.12600
H513        H  0.12801593  0.79716495  0.91774104     0.17100
H514        H  0.17765579  0.75137908  0.82775550     0.02900
H515        H  0.07855093  0.75129815  0.84078262     0.17400
H516        H  0.12807868  0.70543571  0.91767080     0.17200
C517        C  0.38920770  0.75134707  0.89243279     0.89000
C518        C  0.36824761  0.72350520  0.89727380    -0.51200
C519        C  0.34386245  0.72365271  0.87344708     0.11900
C520        C  0.34261217  0.75139290  0.84711473     0.22900
C521        C  0.39826443  0.75135841  0.85071342    -0.51900
C522        C  0.37368971  0.75138227  0.82708476     0.12000
C523        C  0.36827807  0.77921380  0.89730877    -0.51500
C524        C  0.34388921  0.77911252  0.87347916     0.12600
H525        H  0.37221638  0.70548102  0.91770917     0.17100
H526        H  0.32265398  0.75140868  0.82777030     0.02900
H527        H  0.42175498  0.75134063  0.84083924     0.17400
H528        H  0.37226321  0.79721146  0.91777370     0.17200
C529        C  0.25012362  0.89042267  0.89240086     0.89000
C530        C  0.27797719  0.86948244  0.89728360    -0.51200
C531        C  0.27786070  0.84507780  0.87348044     0.11900
C532        C  0.25013323  0.84379195  0.84712942     0.22900
C533        C  0.25012680  0.89945227  0.85067076    -0.51900
C534        C  0.25013249  0.87485944  0.82706533     0.12000
C535        C  0.22227305  0.86947639  0.89727535    -0.51500
C536        C  0.22240024  0.84507119  0.87347206     0.12600
H537        H  0.29598673  0.87347939  0.91772765     0.17100
H538        H  0.25013794  0.82381984  0.82780553     0.02900
H539        H  0.25012839  0.92293869  0.84077298     0.17400
H540        H  0.20425997  0.87346801  0.91771555     0.17200
C541        C  0.25015757  0.61230524  0.64710439     0.89000
C542        C  0.27801233  0.63324859  0.64225495    -0.51200
C543        C  0.27788749  0.65763329  0.66608850     0.11900
C544        C  0.25015924  0.65889730  0.69243160     0.22900
C545        C  0.25015149  0.60324084  0.68882097    -0.51900
C546        C  0.25015282  0.62781454  0.71245309     0.12000
C547        C  0.22230935  0.63325611  0.64224466    -0.51500
C548        C  0.22243649  0.65764118  0.66607850     0.12600
H549        H  0.29602339  0.62927253  0.62180792     0.17100
H550        H  0.25016035  0.67885419  0.71177990     0.02900
H551        H  0.25014934  0.57974646  0.69869101     0.17400
H552        H  0.20430244  0.62928580  0.62178979     0.17200
C553        C  0.11111723  0.75133543  0.64708165     0.89000
C554        C  0.13207693  0.72349352  0.64224114    -0.51200
C555        C  0.15646346  0.72364246  0.66606559     0.11900
C556        C  0.15771502  0.75138326  0.69239611     0.22900
C557        C  0.10206262  0.75134840  0.68880172    -0.51900
C558        C  0.12663851  0.75137343  0.71242855     0.12000
C559        C  0.13204677  0.77920198  0.64220168    -0.51500
C560        C  0.15643682  0.77910145  0.66602925     0.12600
H561        H  0.12810802  0.70546948  0.62180632     0.17100
H562        H  0.17767403  0.75139991  0.71173884     0.02900
H563        H  0.07857266  0.75133171  0.69867769     0.17400
H564        H  0.12806102  0.79719879  0.62173484     0.17200
C565        C  0.38924203  0.75129534  0.64712312     0.89000
C566        C  0.36831643  0.77916309  0.64223408    -0.51200
C567        C  0.34392257  0.77906824  0.66605401     0.11900
C568        C  0.34263530  0.75135216  0.69242325     0.22900
C569        C  0.39828864  0.75131102  0.68884631    -0.51900
C570        C  0.37370781  0.75134168  0.71246529     0.12000
C571        C  0.36828006  0.72345439  0.64227963    -0.51500
C572        C  0.34388846  0.72360839  0.66609702     0.12600
H573        H  0.37230998  0.79715933  0.62176969     0.17100
H574        H  0.32267297  0.75137394  0.71175935     0.02900
H575        H  0.42177673  0.75129757  0.69872982     0.17400
H576        H  0.37225012  0.70542901  0.62184716     0.17200
C577        C  0.25019865  0.89041233  0.64709542     0.89000
C578        C  0.22234842  0.86946797  0.64221194    -0.51200
C579        C  0.22246600  0.84506540  0.66601841     0.11900
C580        C  0.25019137  0.84378512  0.69237327     0.22900
C581        C  0.25019066  0.89944512  0.68882424    -0.51700
C582        C  0.25018626  0.87485417  0.71243309     0.12000
C583        C  0.27805258  0.86946957  0.64222725    -0.51500
C584        C  0.27792648  0.84506597  0.66603387     0.12600
H585        H  0.20433942  0.87346138  0.62176575     0.17100
H586        H  0.25018754  0.82381459  0.71169981     0.02900
H587        H  0.25018485  0.92293198  0.69871838     0.17400
H588        H  0.29606661  0.87346187  0.62178776     0.17200
O589        O  0.03112008  0.72567920  0.55782404    -0.71900
O590        O  0.46920463  0.72568471  0.98168631    -0.71900
O591        O  0.03110068  0.72567851  0.98166673    -0.72000
O592        O  0.46922444  0.72567663  0.55784346    -0.72000
O593        O  0.46922978  0.77672477  0.55784267    -0.72000
O594        O  0.03109866  0.77672664  0.98167385    -0.71900
O595        O  0.46921359  0.77673292  0.98169852    -0.71900
O596        O  0.03111455  0.77672743  0.55781823    -0.72000
Ni597      Ni  0.00016239  0.72384195  0.51975506     1.25400
Ni598      Ni  0.00016424  0.77856100  0.51975843     1.25400
C599        C  0.04122087  0.75120714  0.57021345     0.90300
C600        C  0.45910506  0.75121440  0.96930063     0.90200
C601        C  0.04119800  0.75120500  0.96927126     0.90200
C602        C  0.45912892  0.75120251  0.57024224     0.90400
O603        O  0.22464555  0.97042047  0.55783721    -0.71900
O604        O  0.22463130  0.53232277  0.98168908    -0.71900
O605        O  0.22462567  0.97042722  0.98168145    -0.72000
O606        O  0.22464233  0.53231608  0.55783602    -0.72000
O607        O  0.27568615  0.53231680  0.55782350    -0.72000
O608        O  0.27566902  0.97042487  0.98166463    -0.71900
O609        O  0.27567517  0.53231963  0.98167716    -0.71900
O610        O  0.27568890  0.97042148  0.55781957    -0.72000
Ni611      Ni  0.22280081  0.50137112  0.51976158     1.25400
Ni612      Ni  0.27751501  0.50137019  0.51974569     1.25400
C613        C  0.25017089  0.96032002  0.57022638     0.90300
C614        C  0.25015252  0.54242419  0.96929031     0.90200
C615        C  0.25014358  0.96032686  0.96927303     0.90200
C616        C  0.25016576  0.54241825  0.57022406     0.90400
C617        C  0.25018183  0.93687311  0.59838475    -0.10700
C618        C  0.25019589  0.91643734  0.62110464    -0.12300
C619        C  0.41525609  0.75125262  0.62112321    -0.10700
C620        C  0.43568739  0.75121372  0.59840182    -0.12300
C621        C  0.32106492  0.80273958  0.66601623    -0.10700
C622        C  0.30159417  0.82220449  0.66601408    -0.12300
C623        C  0.08510686  0.75128703  0.62107666    -0.10700
C624        C  0.06467248  0.75122779  0.59835974    -0.12300
C625        C  0.17930613  0.80276138  0.66599287    -0.10700
C626        C  0.19878987  0.82221316  0.66599465    -0.12300
C627        C  0.25016046  0.58629884  0.62109405    -0.10700
C628        C  0.25016691  0.56586624  0.59837434    -0.12300
C629        C  0.19878880  0.68051536  0.66606614    -0.10700
C630        C  0.17933131  0.69998878  0.66606715    -0.12300
C631        C  0.30154530  0.68049751  0.66608608    -0.10700
C632        C  0.32101286  0.69996134  0.66609198    -0.12300
C633        C  0.25016694  0.87751701  0.75280758    -0.10700
C634        C  0.25014889  0.87751880  0.78669046    -0.12300
C635        C  0.25012326  0.91644896  0.91838933    -0.10700
C636        C  0.25013340  0.93688353  0.94111052    -0.12300
C637        C  0.37638080  0.75135935  0.75283526    -0.10700
C638        C  0.37637446  0.75137328  0.78671603    -0.12300
C639        C  0.41521721  0.75129950  0.91843940    -0.10700
C640        C  0.43565229  0.75123889  0.94115550    -0.12300
C641        C  0.32102097  0.80277386  0.87351085    -0.10700
C642        C  0.30153797  0.82222652  0.87350637    -0.12300
C643        C  0.12394877  0.75135820  0.78667847    -0.10700
C644        C  0.12395552  0.75136842  0.75279762    -0.12300
C645        C  0.08507083  0.75125708  0.91839018    -0.10700
C646        C  0.06463944  0.75121757  0.94111151    -0.12300
C647        C  0.17926219  0.80274459  0.87349625    -0.10700
C648        C  0.19873362  0.82220876  0.87349598    -0.12300
C649        C  0.25016195  0.62512868  0.78669735    -0.10700
C650        C  0.25015580  0.62512665  0.75281844    -0.12300
C651        C  0.25016461  0.58630773  0.91842397    -0.10700
C652        C  0.25015399  0.56587455  0.94114298    -0.12300
C653        C  0.19878598  0.68050752  0.87343286    -0.10700
C654        C  0.17931735  0.69996978  0.87342746    -0.12300
C655        C  0.32099668  0.69999646  0.87344203    -0.10700
C656        C  0.30154109  0.68052074  0.87344133    -0.12300
C657        C  0.75016949  0.11231329  0.39241232     0.89000
C658        C  0.72231791  0.13325956  0.39726485    -0.51200
C659        C  0.72244270  0.15764304  0.37342943     0.11900
C660        C  0.75016802  0.15890325  0.34708123     0.22900
C661        C  0.75016967  0.10324700  0.35069673    -0.51900
C662        C  0.75016861  0.12781949  0.32706243     0.12000
C663        C  0.77802087  0.13326138  0.39726566    -0.51500
C664        C  0.77789369  0.15764573  0.37342993     0.12600
H665        H  0.70430834  0.12928598  0.41771548     0.17100
H666        H  0.75016669  0.17885953  0.32773084     0.02900
H667        H  0.75016828  0.07975235  0.34082884     0.17400
H668        H  0.79602893  0.12929082  0.41771924     0.17200
C669        C  0.61108526  0.25130016  0.39239060     0.89000
C670        C  0.63200984  0.27916898  0.39727799    -0.51200
C671        C  0.65640413  0.27907387  0.37345879     0.11900
C672        C  0.65769273  0.25135709  0.34709172     0.22900
C673        C  0.60203941  0.25131359  0.35066703    -0.51900
C674        C  0.62662079  0.25134431  0.32704871     0.12000
C675        C  0.63204823  0.22346036  0.39723687    -0.51500
C676        C  0.65644025  0.22361472  0.37342016     0.12600
H677        H  0.62801573  0.29716579  0.41774143     0.17100
H678        H  0.67765551  0.25137891  0.32775610     0.02900
H679        H  0.57855163  0.25129825  0.34078289     0.17400
H680        H  0.62807871  0.20543567  0.41767102     0.17200
C681        C  0.88920774  0.25134702  0.39243264     0.89000
C682        C  0.86824762  0.22350521  0.39727360    -0.51200
C683        C  0.84386243  0.22365280  0.37344692     0.11900
C684        C  0.84261219  0.25139295  0.34711449     0.22900
C685        C  0.89826443  0.25135835  0.35071337    -0.51900
C686        C  0.87368979  0.25138229  0.32708466     0.12000
C687        C  0.86827815  0.27921382  0.39730872    -0.51500
C688        C  0.84388927  0.27911247  0.37347899     0.12600
H689        H  0.87221598  0.20548164  0.41770895     0.17100
H690        H  0.82265453  0.25140877  0.32777025     0.02900
H691        H  0.92175495  0.25134062  0.34083927     0.17400
H692        H  0.87226320  0.29721068  0.41777277     0.17200
C693        C  0.75012368  0.39042253  0.39240089     0.89000
C694        C  0.77797726  0.36948226  0.39728349    -0.51200
C695        C  0.77786071  0.34507766  0.37348029     0.11900
C696        C  0.75013320  0.34379191  0.34712930     0.22900
C697        C  0.75012684  0.39945221  0.35067087    -0.51900
C698        C  0.75013250  0.37485942  0.32706533     0.12000
C699        C  0.72227309  0.36947636  0.39727545    -0.51500
C700        C  0.72240027  0.34507123  0.37347205     0.12600
H701        H  0.79598678  0.37347899  0.41772745     0.17100
H702        H  0.75013765  0.32381972  0.32780548     0.02900
H703        H  0.75012885  0.42293851  0.34077348     0.17400
H704        H  0.70426001  0.37346797  0.41771558     0.17200
C705        C  0.75015777  0.11230527  0.14710446     0.89000
C706        C  0.77801249  0.13324860  0.14225501    -0.51200
C707        C  0.77788760  0.15763332  0.16608849     0.11900
C708        C  0.75015930  0.15889723  0.19243167     0.22900
C709        C  0.75015168  0.10324080  0.18882101    -0.51900
C710        C  0.75015285  0.12781453  0.21245316     0.12000
C711        C  0.72230942  0.13325609  0.14224476    -0.51500
C712        C  0.72243651  0.15764114  0.16607873     0.12600
H713        H  0.79602369  0.12927274  0.12180717     0.17100
H714        H  0.75016020  0.17885419  0.21178050     0.02900
H715        H  0.75014906  0.07974655  0.19869087     0.17400
H716        H  0.70430259  0.12928558  0.12179051     0.17200
C717        C  0.61111728  0.25133524  0.14708168     0.89000
C718        C  0.63207700  0.22349336  0.14224115    -0.51200
C719        C  0.65646351  0.22364235  0.16606558     0.11900
C720        C  0.65771505  0.25138319  0.19239611     0.22900
C721        C  0.60206268  0.25134829  0.18880175    -0.51900
C722        C  0.62663851  0.25137342  0.21242853     0.12000
C723        C  0.63204677  0.27920181  0.14220168    -0.51500
C724        C  0.65643682  0.27910134  0.16602926     0.12600
H725        H  0.62810803  0.20546925  0.12180638     0.17100
H726        H  0.67767382  0.25140002  0.21173849     0.02900
H727        H  0.57857276  0.25133132  0.19867783     0.17400
H728        H  0.62806083  0.29719847  0.12173530     0.17200
C729        C  0.88924188  0.25129532  0.14712313     0.89000
C730        C  0.86831637  0.27916308  0.14223420    -0.51200
C731        C  0.84392254  0.27906825  0.16605425     0.11900
C732        C  0.84263526  0.25135209  0.19242334     0.22900
C733        C  0.89828859  0.25131086  0.18884630    -0.51900
C734        C  0.87370765  0.25134159  0.21246538     0.12000
C735        C  0.86827993  0.22345438  0.14227967    -0.51500
C736        C  0.84388834  0.22360839  0.16609716     0.12600
H737        H  0.87231006  0.29715960  0.12176992     0.17100
H738        H  0.82267236  0.25137361  0.21176006     0.02900
H739        H  0.92177629  0.25129787  0.19872944     0.17400
H740        H  0.87224968  0.20542920  0.12184712     0.17200
C741        C  0.75019873  0.39041237  0.14709565     0.89000
C742        C  0.72234854  0.36946799  0.14221207    -0.51200
C743        C  0.72246613  0.34506531  0.16601848     0.11900
C744        C  0.75019137  0.34378515  0.19237331     0.22900
C745        C  0.75019071  0.39944514  0.18882438    -0.51700
C746        C  0.75018625  0.37485417  0.21243323     0.12000
C747        C  0.77805261  0.36946955  0.14222741    -0.51500
C748        C  0.77792649  0.34506591  0.16603414     0.12600
H749        H  0.70434008  0.37346120  0.12176595     0.17100
H750        H  0.75018739  0.32381410  0.21170013     0.02900
H751        H  0.75018491  0.42293221  0.19871873     0.17400
H752        H  0.79606629  0.37346188  0.12178881     0.17200
O753        O  0.53112008  0.22567929  0.05782402    -0.71900
O754        O  0.96920461  0.22568476  0.48168653    -0.71900
O755        O  0.53110071  0.22567861  0.48166683    -0.72000
O756        O  0.96922436  0.22567668  0.05784344    -0.72000
O757        O  0.96922970  0.27672482  0.05784262    -0.72000
O758        O  0.53109877  0.27672673  0.48167404    -0.71900
O759        O  0.96921352  0.27673299  0.48169857    -0.71900
O760        O  0.53111458  0.27672754  0.05781820    -0.72000
Ni761      Ni  0.50016242  0.22384193  0.01975494     1.25400
Ni762      Ni  0.50016426  0.27856099  0.01975839     1.25400
C763        C  0.54122094  0.25120724  0.07021338     0.90300
C764        C  0.95910505  0.25121445  0.46930072     0.90200
C765        C  0.54119793  0.25120510  0.46927118     0.90200
C766        C  0.95912883  0.25120256  0.07024221     0.90400
O767        O  0.72464558  0.47042043  0.05783714    -0.71900
O768        O  0.72463142  0.03232272  0.48168911    -0.71900
O769        O  0.72462565  0.47042716  0.48168158    -0.72000
O770        O  0.72464237  0.03231605  0.05783600    -0.72000
O771        O  0.77568610  0.03231680  0.05782353    -0.72000
O772        O  0.77566899  0.47042490  0.48166453    -0.71900
O773        O  0.77567520  0.03231962  0.48167707    -0.71900
O774        O  0.77568885  0.47042152  0.05781967    -0.72000
Ni775      Ni  0.72280081  0.00137115  0.01976152     1.25400
Ni776      Ni  0.77751496  0.00137020  0.01974574     1.25400
C777        C  0.75017086  0.46031999  0.07022638     0.90300
C778        C  0.75015257  0.04242431  0.46929042     0.90200
C779        C  0.75014355  0.46032680  0.46927305     0.90200
C780        C  0.75016575  0.04241823  0.07022409     0.90400
C781        C  0.75018179  0.43687306  0.09838473    -0.10700
C782        C  0.75019607  0.41643733  0.12110467    -0.12300
C783        C  0.91525603  0.25125257  0.12112321    -0.10700
C784        C  0.93568741  0.25121369  0.09840194    -0.12300
C785        C  0.82106500  0.30273958  0.16601637    -0.10700
C786        C  0.80159422  0.32220446  0.16601418    -0.12300
C787        C  0.58510693  0.25128698  0.12107669    -0.10700
C788        C  0.56467249  0.25122775  0.09835984    -0.12300
C789        C  0.67930622  0.30276131  0.16599285    -0.10700
C790        C  0.69878993  0.32221315  0.16599458    -0.12300
C791        C  0.75016055  0.08629879  0.12109419    -0.10700
C792        C  0.75016697  0.06586623  0.09837443    -0.12300
C793        C  0.69878880  0.18051531  0.16606625    -0.10700
C794        C  0.67933134  0.19998874  0.16606728    -0.12300
C795        C  0.80154522  0.18049760  0.16608604    -0.10700
C796        C  0.82101277  0.19996139  0.16609184    -0.12300
C797        C  0.75016691  0.37751704  0.25280768    -0.10700
C798        C  0.75014880  0.37751887  0.28669053    -0.12300
C799        C  0.75012341  0.41644883  0.41838932    -0.10700
C800        C  0.75013336  0.43688341  0.44111049    -0.12300
C801        C  0.87638078  0.25135933  0.25283525    -0.10700
C802        C  0.87637460  0.25137335  0.28671600    -0.12300
C803        C  0.91521729  0.25129950  0.41843935    -0.10700
C804        C  0.93565230  0.25123900  0.44115559    -0.12300
C805        C  0.82102105  0.30277380  0.37351076    -0.10700
C806        C  0.80153802  0.32222641  0.37350629    -0.12300
C807        C  0.62394898  0.25135821  0.28667847    -0.10700
C808        C  0.62395551  0.25136842  0.25279760    -0.12300
C809        C  0.58507084  0.25125714  0.41839006    -0.10700
C810        C  0.56463950  0.25121759  0.44111147    -0.12300
C811        C  0.67926222  0.30274459  0.37349619    -0.10700
C812        C  0.69873364  0.32220878  0.37349606    -0.12300
C813        C  0.75016184  0.12512865  0.28669743    -0.10700
C814        C  0.75015577  0.12512666  0.25281852    -0.12300
C815        C  0.75016466  0.08630778  0.41842396    -0.10700
C816        C  0.75015395  0.06587457  0.44114295    -0.12300
C817        C  0.69878597  0.18050758  0.37343300    -0.10700
C818        C  0.67931729  0.19996977  0.37342750    -0.12300
C819        C  0.82099668  0.19999651  0.37344207    -0.10700
C820        C  0.80154103  0.18052084  0.37344122    -0.12300
C821        C  0.75016942  0.11231323  0.89241232     0.89000
C822        C  0.72231790  0.13325944  0.89726496    -0.51200
C823        C  0.72244278  0.15764299  0.87342958     0.11900
C824        C  0.75016807  0.15890327  0.84708118     0.22900
C825        C  0.75016967  0.10324692  0.85069676    -0.51900
C826        C  0.75016864  0.12781946  0.82706244     0.12000
C827        C  0.77802079  0.13326132  0.89726571    -0.51500
C828        C  0.77789374  0.15764566  0.87342989     0.12600
H829        H  0.70430843  0.12928589  0.91771560     0.17100
H830        H  0.75016673  0.17885907  0.82773101     0.02900
H831        H  0.75016831  0.07975253  0.84082923     0.17400
H832        H  0.79602876  0.12929043  0.91771849     0.17200
C833        C  0.61108536  0.25129999  0.89239059     0.89000
C834        C  0.63201000  0.27916881  0.89727792    -0.51200
C835        C  0.65640434  0.27907383  0.87345868     0.11900
C836        C  0.65769279  0.25135710  0.84709169     0.22900
C837        C  0.60203950  0.25131357  0.85066695    -0.51900
C838        C  0.62662094  0.25134430  0.82704860     0.12000
C839        C  0.63204828  0.22346026  0.89723689    -0.51500
C840        C  0.65644026  0.22361466  0.87342006     0.12600
H841        H  0.62801584  0.29716558  0.91774122     0.17100
H842        H  0.67765633  0.25137876  0.82775546     0.02900
H843        H  0.57855183  0.25129869  0.84078281     0.17400
H844        H  0.62807861  0.20543507  0.91767111     0.17200
C845        C  0.88920776  0.25134717  0.89243278     0.89000
C846        C  0.86824765  0.22350527  0.89727375    -0.51200
C847        C  0.84386250  0.22365283  0.87344703     0.11900
C848        C  0.84261223  0.25139303  0.84711470     0.22900
C849        C  0.89826443  0.25135845  0.85071339    -0.51900
C850        C  0.87368978  0.25138228  0.82708475     0.12000
C851        C  0.86827827  0.27921394  0.89730883    -0.51500
C852        C  0.84388944  0.27911270  0.87347922     0.12600
H853        H  0.87221633  0.20548152  0.91770894     0.17100
H854        H  0.82265449  0.25140883  0.82777062     0.02900
H855        H  0.92175505  0.25134036  0.84083907     0.17400
H856        H  0.87226366  0.29721164  0.91777383     0.17200
C857        C  0.75012370  0.39042266  0.89240076     0.89000
C858        C  0.77797719  0.36948241  0.89728346    -0.51200
C859        C  0.77786073  0.34507769  0.87348033     0.11900
C860        C  0.75013323  0.34379187  0.84712938     0.22900
C861        C  0.75012686  0.39945228  0.85067074    -0.51900
C862        C  0.75013248  0.37485938  0.82706529     0.12000
C863        C  0.72227317  0.36947639  0.89727539    -0.51500
C864        C  0.72240034  0.34507114  0.87347202     0.12600
H865        H  0.79598674  0.37347945  0.91772749     0.17100
H866        H  0.75013769  0.32381939  0.82780533     0.02900
H867        H  0.75012837  0.42293876  0.84077302     0.17400
H868        H  0.70426050  0.37346811  0.91771529     0.17200
C869        C  0.75015752  0.11230524  0.64710429     0.89000
C870        C  0.77801231  0.13324860  0.64225494    -0.51200
C871        C  0.77788747  0.15763326  0.66608849     0.11900
C872        C  0.75015921  0.15889725  0.69243157     0.22900
C873        C  0.75015144  0.10324083  0.68882092    -0.51900
C874        C  0.75015278  0.12781451  0.71245306     0.12000
C875        C  0.72230931  0.13325605  0.64224451    -0.51500
C876        C  0.72243638  0.15764105  0.66607837     0.12600
H877        H  0.79602351  0.12927240  0.62180787     0.17100
H878        H  0.75016037  0.17885406  0.71177990     0.02900
H879        H  0.75014931  0.07974644  0.69869094     0.17400
H880        H  0.70430177  0.12928542  0.62178929     0.17200
C881        C  0.61111735  0.25133529  0.64708176     0.89000
C882        C  0.63207706  0.22349342  0.64224128    -0.51200
C883        C  0.65646360  0.22364240  0.66606576     0.11900
C884        C  0.65771515  0.25138322  0.69239616     0.22900
C885        C  0.60206280  0.25134836  0.68880176    -0.51900
C886        C  0.62663869  0.25137348  0.71242863     0.12000
C887        C  0.63204677  0.27920187  0.64220173    -0.51500
C888        C  0.65643690  0.27910139  0.66602939     0.12600
H889        H  0.62810832  0.20546948  0.62180647     0.17100
H890        H  0.67767459  0.25139999  0.71173915     0.02900
H891        H  0.57857293  0.25133142  0.69867769     0.17400
H892        H  0.62806103  0.29719809  0.62173512     0.17200
C893        C  0.88924200  0.25129520  0.64712320     0.89000
C894        C  0.86831643  0.27916301  0.64223416    -0.51200
C895        C  0.84392258  0.27906820  0.66605417     0.11900
C896        C  0.84263527  0.25135211  0.69242324     0.22900
C897        C  0.89828864  0.25131089  0.68884639    -0.51900
C898        C  0.87370777  0.25134162  0.71246532     0.12000
C899        C  0.86827998  0.22345431  0.64227966    -0.51500
C900        C  0.84388837  0.22360832  0.66609702     0.12600
H901        H  0.87230997  0.29715884  0.62177016     0.17100
H902        H  0.82267290  0.25137376  0.71175929     0.02900
H903        H  0.92177662  0.25129742  0.69872991     0.17400
H904        H  0.87225003  0.20542888  0.62184713     0.17200
C905        C  0.75019891  0.39041235  0.64709546     0.89000
C906        C  0.72234855  0.36946804  0.64221196    -0.51200
C907        C  0.72246606  0.34506545  0.66601846     0.11900
C908        C  0.75019133  0.34378517  0.69237326     0.22900
C909        C  0.75019077  0.39944511  0.68882427    -0.51700
C910        C  0.75018632  0.37485420  0.71243311     0.12000
C911        C  0.77805275  0.36946954  0.64222731    -0.51500
C912        C  0.77792659  0.34506595  0.66603384     0.12600
H913        H  0.70434006  0.37346141  0.62176619     0.17100
H914        H  0.75018718  0.32381461  0.71169985     0.02900
H915        H  0.75018529  0.42293210  0.69871854     0.17400
H916        H  0.79606731  0.37346193  0.62178745     0.17200
O917        O  0.53112014  0.22567921  0.55782407    -0.71900
O918        O  0.96920456  0.22568489  0.98168637    -0.71900
O919        O  0.53110064  0.22567852  0.98166678    -0.72000
O920        O  0.96922438  0.22567664  0.55784349    -0.72000
O921        O  0.96922976  0.27672471  0.55784264    -0.72000
O922        O  0.53109876  0.27672666  0.98167391    -0.71900
O923        O  0.96921354  0.27673301  0.98169850    -0.71900
O924        O  0.53111464  0.27672736  0.55781824    -0.72000
Ni925      Ni  0.50016246  0.22384195  0.51975500     1.25400
Ni926      Ni  0.50016430  0.27856095  0.51975848     1.25400
C927        C  0.54122092  0.25120712  0.57021352     0.90300
C928        C  0.95910499  0.25121452  0.96930064     0.90200
C929        C  0.54119795  0.25120499  0.96927121     0.90200
C930        C  0.95912891  0.25120250  0.57024227     0.90400
O931        O  0.72464550  0.47042037  0.55783726    -0.71900
O932        O  0.72463129  0.03232275  0.98168899    -0.71900
O933        O  0.72462566  0.47042730  0.98168139    -0.72000
O934        O  0.72464234  0.03231613  0.55783605    -0.72000
O935        O  0.77568616  0.03231673  0.55782342    -0.72000
O936        O  0.77566901  0.47042477  0.98166461    -0.71900
O937        O  0.77567516  0.03231965  0.98167721    -0.71900
O938        O  0.77568885  0.47042148  0.55781956    -0.72000
Ni939      Ni  0.72280081  0.00137121  0.51976157     1.25400
Ni940      Ni  0.77751495  0.00137014  0.51974566     1.25400
C941        C  0.75017086  0.46031995  0.57022638     0.90300
C942        C  0.75015250  0.04242423  0.96929030     0.90200
C943        C  0.75014355  0.46032683  0.96927299     0.90200
C944        C  0.75016580  0.04241825  0.57022403     0.90400
C945        C  0.75018179  0.43687316  0.59838482    -0.10700
C946        C  0.75019600  0.41643734  0.62110464    -0.12300
C947        C  0.91525610  0.25125250  0.62112325    -0.10700
C948        C  0.93568738  0.25121368  0.59840183    -0.12300
C949        C  0.82106498  0.30273953  0.66601630    -0.10700
C950        C  0.80159427  0.32220447  0.66601409    -0.12300
C951        C  0.58510695  0.25128696  0.62107668    -0.10700
C952        C  0.56467252  0.25122778  0.59835985    -0.12300
C953        C  0.67930614  0.30276143  0.66599286    -0.10700
C954        C  0.69878988  0.32221323  0.66599460    -0.12300
C955        C  0.75016045  0.08629880  0.62109411    -0.10700
C956        C  0.75016694  0.06586630  0.59837427    -0.12300
C957        C  0.69878878  0.18051531  0.66606612    -0.10700
C958        C  0.67933142  0.19998882  0.66606721    -0.12300
C959        C  0.80154519  0.18049749  0.66608606    -0.10700
C960        C  0.82101271  0.19996133  0.66609192    -0.12300
C961        C  0.75016689  0.37751708  0.75280758    -0.10700
C962        C  0.75014882  0.37751870  0.78669045    -0.12300
C963        C  0.75012343  0.41644898  0.91838927    -0.10700
C964        C  0.75013332  0.43688353  0.94111047    -0.12300
C965        C  0.87638074  0.25135927  0.75283525    -0.10700
C966        C  0.87637448  0.25137327  0.78671600    -0.12300
C967        C  0.91521727  0.25129952  0.91843933    -0.10700
C968        C  0.93565228  0.25123885  0.94115551    -0.12300
C969        C  0.82102112  0.30277390  0.87351089    -0.10700
C970        C  0.80153809  0.32222651  0.87350630    -0.12300
C971        C  0.62394896  0.25135828  0.78667847    -0.10700
C972        C  0.62395550  0.25136851  0.75279763    -0.12300
C973        C  0.58507082  0.25125710  0.91839011    -0.10700
C974        C  0.56463945  0.25121748  0.94111147    -0.12300
C975        C  0.67926226  0.30274465  0.87349628    -0.10700
C976        C  0.69873366  0.32220884  0.87349605    -0.12300
C977        C  0.75016190  0.12512863  0.78669737    -0.10700
C978        C  0.75015574  0.12512663  0.75281844    -0.12300
C979        C  0.75016462  0.08630777  0.91842395    -0.10700
C980        C  0.75015384  0.06587455  0.94114291    -0.12300
C981        C  0.69878599  0.18050753  0.87343287    -0.10700
C982        C  0.67931731  0.19996977  0.87342754    -0.12300
C983        C  0.82099673  0.19999654  0.87344195    -0.10700
C984        C  0.80154112  0.18052082  0.87344129    -0.12300
C985        C  0.75016942  0.61231328  0.39241231     0.89000
C986        C  0.72231789  0.63325958  0.39726487    -0.51200
C987        C  0.72244273  0.65764305  0.37342945     0.11900
C988        C  0.75016807  0.65890327  0.34708129     0.22900
C989        C  0.75016962  0.60324703  0.35069670    -0.51900
C990        C  0.75016863  0.62781954  0.32706244     0.12000
C991        C  0.77802080  0.63326133  0.39726572    -0.51500
C992        C  0.77789376  0.65764570  0.37343002     0.12600
H993        H  0.70430829  0.62928605  0.41771552     0.17100
H994        H  0.75016676  0.67885954  0.32773096     0.02900
H995        H  0.75016830  0.57975237  0.34082877     0.17400
H996        H  0.79602906  0.62929046  0.41771927     0.17200
C997        C  0.61108523  0.75130002  0.39239069     0.89000
C998        C  0.63200983  0.77916887  0.39727802    -0.51200
C999        C  0.65640413  0.77907385  0.37345882     0.11900
C1000       C  0.65769268  0.75135712  0.34709175     0.22900
C1001       C  0.60203942  0.75131353  0.35066707    -0.51900
C1002       C  0.62662077  0.75134429  0.32704874     0.12000
C1003       C  0.63204820  0.72346033  0.39723694    -0.51500
C1004       C  0.65644014  0.72361471  0.37342024     0.12600
H1005       H  0.62801563  0.79716569  0.41774137     0.17100
H1006       H  0.67765543  0.75137881  0.32775618     0.02900
H1007       H  0.57855162  0.75129862  0.34078292     0.17400
H1008       H  0.62807856  0.70543499  0.41767144     0.17200
C1009       C  0.88920772  0.75134710  0.39243271     0.89000
C1010       C  0.86824758  0.72350524  0.39727373    -0.51200
C1011       C  0.84386240  0.72365288  0.37344704     0.11900
C1012       C  0.84261218  0.75139300  0.34711461     0.22900
C1013       C  0.89826441  0.75135836  0.35071340    -0.51900
C1014       C  0.87368976  0.75138221  0.32708471     0.12000
C1015       C  0.86827818  0.77921395  0.39730875    -0.51500
C1016       C  0.84388929  0.77911257  0.37347911     0.12600
H1017       H  0.87221594  0.70548161  0.41770908     0.17100
H1018       H  0.82265446  0.75140882  0.32777033     0.02900
H1019       H  0.92175490  0.75134031  0.34083927     0.17400
H1020       H  0.87226332  0.79721122  0.41777307     0.17200
C1021       C  0.75012363  0.89042257  0.39240087     0.89000
C1022       C  0.77797723  0.86948234  0.39728354    -0.51200
C1023       C  0.77786075  0.84507770  0.37348038     0.11900
C1024       C  0.75013322  0.84379190  0.34712939     0.22900
C1025       C  0.75012683  0.89945232  0.35067082    -0.51900
C1026       C  0.75013254  0.87485944  0.32706535     0.12000
C1027       C  0.72227308  0.86947635  0.39727548    -0.51500
C1028       C  0.72240022  0.84507123  0.37347211     0.12600
H1029       H  0.79598682  0.87347934  0.41772751     0.17100
H1030       H  0.75013772  0.82381969  0.32780567     0.02900
H1031       H  0.75012891  0.92293860  0.34077342     0.17400
H1032       H  0.70425981  0.87346819  0.41771565     0.17200
C1033       C  0.75015771  0.61230519  0.14710442     0.89000
C1034       C  0.77801247  0.63324851  0.14225497    -0.51200
C1035       C  0.77788766  0.65763322  0.16608840     0.11900
C1036       C  0.75015935  0.65889718  0.19243165     0.22900
C1037       C  0.75015158  0.60324078  0.18882098    -0.51900
C1038       C  0.75015280  0.62781444  0.21245310     0.12000
C1039       C  0.72230939  0.63325606  0.14224471    -0.51500
C1040       C  0.72243652  0.65764109  0.16607866     0.12600
H1041       H  0.79602376  0.62927238  0.12180709     0.17100
H1042       H  0.75016031  0.67885370  0.21178022     0.02900
H1043       H  0.75014899  0.57974635  0.19869097     0.17400
H1044       H  0.70430258  0.62928561  0.12179038     0.17200
C1045       C  0.61111728  0.75133518  0.14708176     0.89000
C1046       C  0.63207701  0.72349335  0.14224120    -0.51200
C1047       C  0.65646348  0.72364236  0.16606566     0.11900
C1048       C  0.65771507  0.75138325  0.19239618     0.22900
C1049       C  0.60206269  0.75134830  0.18880180    -0.51900
C1050       C  0.62663851  0.75137347  0.21242859     0.12000
C1051       C  0.63204674  0.77920184  0.14220173    -0.51500
C1052       C  0.65643683  0.77910135  0.16602935     0.12600
H1053       H  0.62810804  0.70546918  0.12180638     0.17100
H1054       H  0.67767378  0.75140013  0.21173850     0.02900
H1055       H  0.57857274  0.75133139  0.19867787     0.17400
H1056       H  0.62806094  0.79719786  0.12173565     0.17200
C1057       C  0.88924201  0.75129520  0.14712328     0.89000
C1058       C  0.86831648  0.77916301  0.14223431    -0.51200
C1059       C  0.84392254  0.77906815  0.16605434     0.11900
C1060       C  0.84263533  0.75135206  0.19242341     0.22900
C1061       C  0.89828867  0.75131080  0.18884634    -0.51900
C1062       C  0.87370783  0.75134150  0.21246543     0.12000
C1063       C  0.86827993  0.72345437  0.14227977    -0.51500
C1064       C  0.84388832  0.72360838  0.16609720     0.12600
H1065       H  0.87230997  0.79715878  0.12177031     0.17100
H1066       H  0.82267241  0.75137367  0.21176017     0.02900
H1067       H  0.92177719  0.75129737  0.19872978     0.17400
H1068       H  0.87224969  0.70542911  0.12184710     0.17200
C1069       C  0.75019880  0.89041243  0.14709558     0.89000
C1070       C  0.72234855  0.86946804  0.14221204    -0.51200
C1071       C  0.72246610  0.84506538  0.16601840     0.11900
C1072       C  0.75019136  0.84378518  0.19237323     0.22900
C1073       C  0.75019077  0.89944514  0.18882435    -0.51700
C1074       C  0.75018632  0.87485424  0.21243316     0.12000
C1075       C  0.77805266  0.86946961  0.14222729    -0.51500
C1076       C  0.77792650  0.84506594  0.16603391     0.12600
H1077       H  0.70434007  0.87346130  0.12176596     0.17100
H1078       H  0.75018733  0.82381453  0.21169984     0.02900
H1079       H  0.75018503  0.92293238  0.19871886     0.17400
H1080       H  0.79606649  0.87346191  0.12178804     0.17200
O1081       O  0.53112009  0.72567919  0.05782400    -0.71900
O1082       O  0.96920463  0.72568489  0.48168655    -0.71900
O1083       O  0.53110066  0.72567862  0.48166685    -0.72000
O1084       O  0.96922444  0.72567665  0.05784343    -0.72000
O1085       O  0.96922968  0.77672471  0.05784259    -0.72000
O1086       O  0.53109876  0.77672674  0.48167400    -0.71900
O1087       O  0.96921353  0.77673302  0.48169854    -0.71900
O1088       O  0.53111455  0.77672736  0.05781808    -0.72000
Ni1089     Ni  0.50016242  0.72384192  0.01975495     1.25400
Ni1090     Ni  0.50016426  0.77856095  0.01975837     1.25400
C1091       C  0.54122094  0.75120711  0.07021331     0.90300
C1092       C  0.95910508  0.75121451  0.46930068     0.90200
C1093       C  0.54119790  0.75120510  0.46927117     0.90200
C1094       C  0.95912889  0.75120248  0.07024222     0.90400
O1095       O  0.72464558  0.97042036  0.05783716    -0.71900
O1096       O  0.72463138  0.53232262  0.48168904    -0.71900
O1097       O  0.72462576  0.97042729  0.48168154    -0.72000
O1098       O  0.72464234  0.53231608  0.05783599    -0.72000
O1099       O  0.77568607  0.53231676  0.05782351    -0.72000
O1100       O  0.77566901  0.97042484  0.48166458    -0.71900
O1101       O  0.77567515  0.53231964  0.48167715    -0.71900
O1102       O  0.77568884  0.97042157  0.05781968    -0.72000
Ni1103     Ni  0.72280083  0.50137120  0.01976152     1.25400
Ni1104     Ni  0.77751495  0.50137017  0.01974571     1.25400
C1105       C  0.75017087  0.96031993  0.07022634     0.90300
C1106       C  0.75015252  0.54242424  0.46929037     0.90200
C1107       C  0.75014360  0.96032684  0.46927302     0.90200
C1108       C  0.75016573  0.54241824  0.07022404     0.90400
C1109       C  0.75018177  0.93687309  0.09838473    -0.10700
C1110       C  0.75019607  0.91643732  0.12110461    -0.12300
C1111       C  0.91525606  0.75125252  0.12112314    -0.10700
C1112       C  0.93568744  0.75121368  0.09840187    -0.12300
C1113       C  0.82106502  0.80273956  0.16601635    -0.10700
C1114       C  0.80159423  0.82220446  0.16601418    -0.12300
C1115       C  0.58510697  0.75128691  0.12107665    -0.10700
C1116       C  0.56467253  0.75122775  0.09835976    -0.12300
C1117       C  0.67930616  0.80276138  0.16599283    -0.10700
C1118       C  0.69878986  0.82221322  0.16599457    -0.12300
C1119       C  0.75016046  0.58629875  0.12109416    -0.10700
C1120       C  0.75016696  0.56586625  0.09837434    -0.12300
C1121       C  0.69878884  0.68051535  0.16606628    -0.10700
C1122       C  0.67933140  0.69998881  0.16606729    -0.12300
C1123       C  0.80154523  0.68049759  0.16608603    -0.10700
C1124       C  0.82101275  0.69996139  0.16609186    -0.12300
C1125       C  0.75016703  0.87751707  0.25280766    -0.10700
C1126       C  0.75014892  0.87751875  0.28669052    -0.12300
C1127       C  0.75012337  0.91644888  0.41838927    -0.10700
C1128       C  0.75013338  0.93688347  0.44111044    -0.12300
C1129       C  0.87638082  0.75135924  0.25283528    -0.10700
C1130       C  0.87637456  0.75137326  0.28671602    -0.12300
C1131       C  0.91521731  0.75129954  0.41843928    -0.10700
C1132       C  0.93565228  0.75123891  0.44115556    -0.12300
C1133       C  0.82102110  0.80277388  0.37351077    -0.10700
C1134       C  0.80153807  0.82222647  0.37350633    -0.12300
C1135       C  0.62394897  0.75135827  0.28667849    -0.10700
C1136       C  0.62395549  0.75136850  0.25279763    -0.12300
C1137       C  0.58507082  0.75125712  0.41839007    -0.10700
C1138       C  0.56463947  0.75121763  0.44111146    -0.12300
C1139       C  0.67926225  0.80274456  0.37349617    -0.10700
C1140       C  0.69873361  0.82220880  0.37349610    -0.12300
C1141       C  0.75016184  0.62512873  0.28669743    -0.10700
C1142       C  0.75015586  0.62512663  0.25281851    -0.12300
C1143       C  0.75016456  0.58630774  0.41842391    -0.10700
C1144       C  0.75015385  0.56587460  0.44114297    -0.12300
C1145       C  0.69878600  0.68050762  0.37343300    -0.10700
C1146       C  0.67931727  0.69996980  0.37342751    -0.12300
C1147       C  0.82099669  0.69999660  0.37344202    -0.10700
C1148       C  0.80154110  0.68052087  0.37344135    -0.12300
C1149       C  0.75016941  0.61231324  0.89241233     0.89000
C1150       C  0.72231786  0.63325943  0.89726495    -0.51200
C1151       C  0.72244271  0.65764293  0.87342954     0.11900
C1152       C  0.75016801  0.65890318  0.84708115     0.22900
C1153       C  0.75016966  0.60324693  0.85069675    -0.51900
C1154       C  0.75016861  0.62781942  0.82706241     0.12000
C1155       C  0.77802081  0.63326138  0.89726564    -0.51500
C1156       C  0.77789364  0.65764569  0.87342985     0.12600
H1157       H  0.70430829  0.62928582  0.91771552     0.17100
H1158       H  0.75016671  0.67885898  0.82773094     0.02900
H1159       H  0.75016831  0.57975245  0.84082915     0.17400
H1160       H  0.79602862  0.62929077  0.91771840     0.17200
C1161       C  0.61108527  0.75130001  0.89239047     0.89000
C1162       C  0.63200989  0.77916882  0.89727790    -0.51200
C1163       C  0.65640426  0.77907381  0.87345866     0.11900
C1164       C  0.65769276  0.75135714  0.84709162     0.22900
C1165       C  0.60203943  0.75131356  0.85066693    -0.51900
C1166       C  0.62662084  0.75134422  0.82704861     0.12000
C1167       C  0.63204826  0.72346029  0.89723683    -0.51500
C1168       C  0.65644029  0.72361471  0.87342000     0.12600
H1169       H  0.62801588  0.79716499  0.91774098     0.17100
H1170       H  0.67765587  0.75137911  0.82775554     0.02900
H1171       H  0.57855165  0.75129815  0.84078278     0.17400
H1172       H  0.62807874  0.70543565  0.91767073     0.17200
C1173       C  0.88920775  0.75134693  0.89243280     0.89000
C1174       C  0.86824763  0.72350507  0.89727373    -0.51200
C1175       C  0.84386253  0.72365266  0.87344701     0.11900
C1176       C  0.84261224  0.75139292  0.84711464     0.22900
C1177       C  0.89826444  0.75135833  0.85071342    -0.51900
C1178       C  0.87368980  0.75138224  0.82708474     0.12000
C1179       C  0.86827823  0.77921375  0.89730880    -0.51500
C1180       C  0.84388936  0.77911252  0.87347911     0.12600
H1181       H  0.87221613  0.70548097  0.91770924     0.17100
H1182       H  0.82265449  0.75140871  0.82777044     0.02900
H1183       H  0.92175492  0.75134060  0.84083921     0.17400
H1184       H  0.87226348  0.79721097  0.91777350     0.17200
C1185       C  0.75012371  0.89042261  0.89240073     0.89000
C1186       C  0.77797720  0.86948237  0.89728344    -0.51200
C1187       C  0.77786073  0.84507767  0.87348030     0.11900
C1188       C  0.75013321  0.84379187  0.84712938     0.22900
C1189       C  0.75012684  0.89945218  0.85067070    -0.51900
C1190       C  0.75013246  0.87485932  0.82706525     0.12000
C1191       C  0.72227314  0.86947637  0.89727533    -0.51500
C1192       C  0.72240034  0.84507110  0.87347200     0.12600
H1193       H  0.79598682  0.87347941  0.91772742     0.17100
H1194       H  0.75013761  0.82381935  0.82780522     0.02900
H1195       H  0.75012832  0.92293857  0.84077294     0.17400
H1196       H  0.70426064  0.87346790  0.91771523     0.17200
C1197       C  0.75015750  0.61230525  0.64710430     0.89000
C1198       C  0.77801231  0.63324861  0.64225491    -0.51200
C1199       C  0.77788748  0.65763329  0.66608847     0.11900
C1200       C  0.75015921  0.65889728  0.69243155     0.22900
C1201       C  0.75015148  0.60324084  0.68882095    -0.51900
C1202       C  0.75015271  0.62781453  0.71245307     0.12000
C1203       C  0.72230926  0.63325613  0.64224461    -0.51500
C1204       C  0.72243637  0.65764113  0.66607844     0.12600
H1205       H  0.79602339  0.62927257  0.62180789     0.17100
H1206       H  0.75016042  0.67885415  0.71177986     0.02900
H1207       H  0.75014899  0.57974647  0.69869100     0.17400
H1208       H  0.70430177  0.62928574  0.62178939     0.17200
C1209       C  0.61111728  0.75133542  0.64708164     0.89000
C1210       C  0.63207691  0.72349348  0.64224114    -0.51200
C1211       C  0.65646348  0.72364244  0.66606559     0.11900
C1212       C  0.65771501  0.75138323  0.69239610     0.22900
C1213       C  0.60206273  0.75134842  0.68880171    -0.51900
C1214       C  0.62663858  0.75137343  0.71242856     0.12000
C1215       C  0.63204675  0.77920198  0.64220164    -0.51500
C1216       C  0.65643682  0.77910146  0.66602925     0.12600
H1217       H  0.62810799  0.70546955  0.62180629     0.17100
H1218       H  0.67767406  0.75139983  0.71173899     0.02900
H1219       H  0.57857287  0.75133173  0.69867769     0.17400
H1220       H  0.62806095  0.79719876  0.62173481     0.17200
C1221       C  0.88924200  0.75129533  0.64712313     0.89000
C1222       C  0.86831643  0.77916310  0.64223409    -0.51200
C1223       C  0.84392263  0.77906824  0.66605404     0.11900
C1224       C  0.84263536  0.75135218  0.69242325     0.22900
C1225       C  0.89828869  0.75131099  0.68884631    -0.51900
C1226       C  0.87370781  0.75134167  0.71246528     0.12000
C1227       C  0.86828002  0.72345436  0.64227966    -0.51500
C1228       C  0.84388845  0.72360842  0.66609707     0.12600
H1229       H  0.87230998  0.79715944  0.62176977     0.17100
H1230       H  0.82267301  0.75137398  0.71175944     0.02900
H1231       H  0.92177660  0.75129753  0.69872973     0.17400
H1232       H  0.87224983  0.70542907  0.62184721     0.17200
C1233       C  0.75019879  0.89041235  0.64709550     0.89000
C1234       C  0.72234856  0.86946800  0.64221198    -0.51200
C1235       C  0.72246611  0.84506541  0.66601851     0.11900
C1236       C  0.75019141  0.84378510  0.69237332     0.22900
C1237       C  0.75019076  0.89944513  0.68882427    -0.51700
C1238       C  0.75018628  0.87485417  0.71243312     0.12000
C1239       C  0.77805265  0.86946957  0.64222730    -0.51500
C1240       C  0.77792653  0.84506593  0.66603389     0.12600
H1241       H  0.70434003  0.87346133  0.62176605     0.17100
H1242       H  0.75018737  0.82381457  0.71169984     0.02900
H1243       H  0.75018495  0.92293200  0.69871839     0.17400
H1244       H  0.79606661  0.87346188  0.62178783     0.17200
O1245       O  0.53112012  0.72567920  0.55782408    -0.71900
O1246       O  0.96920468  0.72568472  0.98168635    -0.71900
O1247       O  0.53110065  0.72567850  0.98166675    -0.72000
O1248       O  0.96922438  0.72567662  0.55784353    -0.72000
O1249       O  0.96922977  0.77672476  0.55784267    -0.72000
O1250       O  0.53109872  0.77672665  0.98167389    -0.71900
O1251       O  0.96921349  0.77673293  0.98169851    -0.71900
O1252       O  0.53111462  0.77672743  0.55781824    -0.72000
Ni1253     Ni  0.50016242  0.72384196  0.51975502     1.25400
Ni1254     Ni  0.50016429  0.77856099  0.51975846     1.25400
C1255       C  0.54122089  0.75120714  0.57021351     0.90300
C1256       C  0.95910507  0.75121439  0.96930063     0.90200
C1257       C  0.54119793  0.75120499  0.96927119     0.90200
C1258       C  0.95912888  0.75120250  0.57024229     0.90400
O1259       O  0.72464545  0.97042050  0.55783719    -0.71900
O1260       O  0.72463137  0.53232278  0.98168907    -0.71900
O1261       O  0.72462564  0.97042722  0.98168145    -0.72000
O1262       O  0.72464243  0.53231611  0.55783604    -0.72000
O1263       O  0.77568615  0.53231676  0.55782345    -0.72000
O1264       O  0.77566900  0.97042488  0.98166464    -0.71900
O1265       O  0.77567516  0.53231961  0.98167718    -0.71900
O1266       O  0.77568880  0.97042145  0.55781959    -0.72000
Ni1267     Ni  0.72280079  0.50137113  0.51976159     1.25400
Ni1268     Ni  0.77751493  0.50137016  0.51974567     1.25400
C1269       C  0.75017078  0.96032002  0.57022638     0.90300
C1270       C  0.75015255  0.54242420  0.96929030     0.90200
C1271       C  0.75014354  0.96032685  0.96927302     0.90200
C1272       C  0.75016583  0.54241825  0.57022406     0.90400
C1273       C  0.75018178  0.93687310  0.59838476    -0.10700
C1274       C  0.75019600  0.91643733  0.62110465    -0.12300
C1275       C  0.91525607  0.75125257  0.62112329    -0.10700
C1276       C  0.93568741  0.75121368  0.59840198    -0.12300
C1277       C  0.82106498  0.80273952  0.66601618    -0.10700
C1278       C  0.80159423  0.82220442  0.66601407    -0.12300
C1279       C  0.58510691  0.75128704  0.62107667    -0.10700
C1280       C  0.56467248  0.75122779  0.59835984    -0.12300
C1281       C  0.67930620  0.80276140  0.66599291    -0.10700
C1282       C  0.69878993  0.82221322  0.66599466    -0.12300
C1283       C  0.75016043  0.58629883  0.62109404    -0.10700
C1284       C  0.75016695  0.56586623  0.59837434    -0.12300
C1285       C  0.69878877  0.68051536  0.66606612    -0.10700
C1286       C  0.67933135  0.69998883  0.66606716    -0.12300
C1287       C  0.80154528  0.68049755  0.66608607    -0.10700
C1288       C  0.82101283  0.69996140  0.66609198    -0.12300
C1289       C  0.75016692  0.87751701  0.75280758    -0.10700
C1290       C  0.75014879  0.87751875  0.78669044    -0.12300
C1291       C  0.75012339  0.91644893  0.91838930    -0.10700
C1292       C  0.75013329  0.93688350  0.94111050    -0.12300
C1293       C  0.87638075  0.75135935  0.75283523    -0.10700
C1294       C  0.87637461  0.75137328  0.78671599    -0.12300
C1295       C  0.91521728  0.75129941  0.91843941    -0.10700
C1296       C  0.93565231  0.75123887  0.94115557    -0.12300
C1297       C  0.82102104  0.80277379  0.87351088    -0.10700
C1298       C  0.80153804  0.82222645  0.87350635    -0.12300
C1299       C  0.62394894  0.75135820  0.78667847    -0.10700
C1300       C  0.62395548  0.75136843  0.75279761    -0.12300
C1301       C  0.58507081  0.75125706  0.91839012    -0.10700
C1302       C  0.56463944  0.75121754  0.94111148    -0.12300
C1303       C  0.67926216  0.80274467  0.87349628    -0.10700
C1304       C  0.69873360  0.82220883  0.87349603    -0.12300
C1305       C  0.75016187  0.62512869  0.78669736    -0.10700
C1306       C  0.75015578  0.62512664  0.75281844    -0.12300
C1307       C  0.75016465  0.58630773  0.91842398    -0.10700
C1308       C  0.75015396  0.56587455  0.94114298    -0.12300
C1309       C  0.69878598  0.68050752  0.87343289    -0.10700
C1310       C  0.67931731  0.69996975  0.87342750    -0.12300
C1311       C  0.82099669  0.69999646  0.87344199    -0.10700
C1312       C  0.80154103  0.68052079  0.87344130    -0.12300
loop_ 
_geom_bond_atom_site_label_1 
_geom_bond_atom_site_label_2 
_geom_bond_distance 
_geom_bond_site_symmetry_2 
_ccdc_geom_bond_type 
C1            C2   1.535       .  S
C1            C7   1.535       .  S
C1            C5   1.536       .  S
C1          C159   1.467       .  S
C2            H9   1.087       .  S
C2            C3   1.363       .  D
C3            C4   1.534       .  S
C3          C161   1.440       .  S
C4            C8   1.534       .  S
C4            C6   1.535       .  S
C4           H10   1.112       .  S
C5           H11   1.086       .  S
C5            C6   1.365       .  D
C6          C157   1.441       .  S
C7           H12   1.087       .  S
C7            C8   1.363       .  D
C8          C164   1.440       .  S
C13          C14   1.535       .  S
C13          C19   1.535       .  S
C13          C17   1.536       .  S
C13         C153   1.467       .  S
C14          H21   1.087       .  S
C14          C15   1.363       .  D
C15          C16   1.534       .  S
C15         C155   1.440       .  S
C16          C20   1.534       .  S
C16          C18   1.535       .  S
C16          H22   1.112       .  S
C17          H23   1.086       .  S
C17          C18   1.365       .  D
C18         C151   1.441       .  S
C19          H24   1.087       .  S
C19          C20   1.363       .  D
C20         C162   1.440       .  S
C25          C26   1.535       .  S
C25          C31   1.535       .  S
C25          C29   1.536       .  S
C25         C147   1.467       .  S
C26          H33   1.087       .  S
C26          C27   1.363       .  D
C27          C28   1.534       .  S
C27         C163   1.440       .  S
C28          C32   1.534       .  S
C28          C30   1.535       .  S
C28          H34   1.112       .  S
C29          H35   1.086       .  S
C29          C30   1.365       .  D
C30         C146   1.441       .  S
C31          H36   1.087       .  S
C31          C32   1.363       .  D
C32         C149   1.440       .  S
C37          C38   1.535       .  S
C37          C43   1.535       .  S
C37          C41   1.536       .  S
C37         C143   1.467       .  S
C38          H45   1.087       .  S
C38          C39   1.363       .  D
C39          C40   1.534       .  S
C39         C150   1.440       .  S
C40          C44   1.534       .  S
C40          C42   1.536       .  S
C40          H46   1.112       .  S
C41          H47   1.086       .  S
C41          C42   1.365       .  D
C42         C142   1.441       .  S
C43          H48   1.087       .  S
C43          C44   1.363       .  D
C44         C156   1.440       .  S
C49          C50   1.535       .  S
C49          C55   1.535       .  S
C49          C53   1.536       .  S
C49         C135   1.467       .  S
C50          H57   1.087       .  S
C50          C51   1.363       .  D
C51          C52   1.534       .  S
C51         C139   1.440       .  S
C52          C56   1.534       .  S
C52          C54   1.535       .  S
C52          H58   1.112       .  S
C53          H59   1.086       .  S
C53          C54   1.365       .  D
C54         C158   1.441       .  S
C55          H60   1.087       .  S
C55          C56   1.363       .  D
C56         C137   1.440       .  S
C61          C62   1.535       .  S
C61          C67   1.535       .  S
C61          C65   1.536       .  S
C61         C131   1.467       .  S
C62          H69   1.087       .  S
C62          C63   1.363       .  D
C63          C64   1.534       .  S
C63         C138   1.440       .  S
C64          C68   1.534       .  S
C64          C66   1.535       .  S
C64          H70   1.112       .  S
C65          H71   1.086       .  S
C65          C66   1.365       .  D
C66         C152   1.441       .  S
C67          H72   1.087       .  S
C67          C68   1.363       .  D
C68         C133   1.440       .  S
C73          C74   1.535       .  S
C73          C79   1.535       .  S
C73          C77   1.536       .  S
C73         C127   1.467       .  S
C74          H81   1.087       .  S
C74          C75   1.363       .  D
C75          C76   1.534       .  S
C75         C129   1.440       .  S
C76          C80   1.534       .  S
C76          C78   1.535       .  S
C76          H82   1.112       .  S
C77          H83   1.086       .  S
C77          C78   1.365       .  D
C78         C145   1.441       .  S
C79          H84   1.087       .  S
C79          C80   1.363       .  D
C80         C140   1.440       .  S
C85          C86   1.535       .  S
C85          C91   1.535       .  S
C85          C89   1.536       .  S
C85         C126   1.467       .  S
C86          H93   1.087       .  S
C86          C87   1.363       .  D
C87          C88   1.534       .  S
C87         C134   1.440       .  S
C88          C92   1.534       .  S
C88          C90   1.536       .  S
C88          H94   1.112       .  S
C89          H95   1.086       .  S
C89          C90   1.365       .  D
C90         C141   1.441       .  S
C91          H96   1.087       .  S
C91          C92   1.363       .  D
C92         C130   1.440       .  S
O97        Ni105   1.917       .  S
O97         C107   1.280       .  A
O98        Ni925   1.917       .  S
O98         C108   1.280       .  A
O99        Ni269   1.917       .  S
O99         C109   1.280       .  A
O100       Ni761   1.917       .  S
O100        C110   1.280       .  A
O101       Ni762   1.917       .  S
O101        C110   1.280       .  A
O102       Ni270   1.917       .  S
O102        C109   1.280       .  A
O103       Ni926   1.917       .  S
O103        C108   1.280       .  A
O104       Ni106   1.917       .  S
O104        C107   1.280       .  A
Ni105       O918   1.917   1_454  S
Ni105       O263   1.917   1_554  S
Ni105       O756   1.917   1_455  S
Ni105      Ni106   2.394       .  S
Ni106       O757   1.917   1_455  S
Ni106       O266   1.917   1_554  S
Ni106       O923   1.917   1_454  S
C107        C132   1.434       .  S
C108        C148   1.434       .  S
C109        C154   1.434       .  S
C110        C128   1.434       .  S
O111       Ni447   1.917       .  S
O111        C121   1.280       .  A
O112       Ni283   1.917       .  S
O112        C122   1.280       .  A
O113       Ni611   1.917       .  S
O113        C123   1.280       .  A
O114       Ni119   1.917       .  S
O114        C124   1.280       .  A
O115       Ni120   1.917       .  S
O115        C124   1.280       .  A
O116       Ni612   1.917       .  S
O116        C123   1.280       .  A
O117       Ni284   1.917       .  S
O117        C122   1.280       .  A
O118       Ni448   1.917       .  S
O118        C121   1.280       .  A
Ni119       O439   1.917   1_545  S
Ni119       O276   1.917   1_554  S
Ni119       O605   1.917   1_544  S
Ni119      Ni120   2.394       .  S
Ni120       O608   1.917   1_544  S
Ni120       O281   1.917   1_554  S
Ni120       O446   1.917   1_545  S
C121        C125   1.434       .  S
C122        C160   1.434       .  S
C123        C144   1.434       .  S
C124        C136   1.434       .  S
C125        C126   1.205       .  T
C127        C128   1.205       .  T
C129        C130   1.205       .  T
C131        C132   1.205       .  T
C133        C134   1.205       .  T
C135        C136   1.205       .  T
C137        C138   1.205       .  T
C139        C140   1.205       .  T
C141        C142   1.206       .  T
C143        C144   1.205       .  T
C145        C146   1.206       .  T
C147        C148   1.205       .  T
C149        C150   1.205       .  T
C151        C152   1.206       .  T
C153        C154   1.205       .  T
C155        C156   1.205       .  T
C157        C158   1.205       .  T
C159        C160   1.205       .  T
C161        C162   1.205       .  T
C163        C164   1.205       .  T
C165        C166   1.535       .  S
C165        C171   1.535       .  S
C165        C169   1.536       .  S
C165        C323   1.467       .  S
C166        H173   1.087       .  S
C166        C167   1.363       .  D
C167        C168   1.534       .  S
C167        C325   1.440       .  S
C168        C172   1.534       .  S
C168        C170   1.535       .  S
C168        H174   1.112       .  S
C169        H175   1.086       .  S
C169        C170   1.365       .  D
C170        C321   1.441       .  S
C171        H176   1.087       .  S
C171        C172   1.363       .  D
C172        C328   1.440       .  S
C177        C178   1.535       .  S
C177        C183   1.535       .  S
C177        C181   1.536       .  S
C177        C317   1.467       .  S
C178        H185   1.087       .  S
C178        C179   1.363       .  D
C179        C180   1.534       .  S
C179        C319   1.440       .  S
C180        C184   1.534       .  S
C180        C182   1.535       .  S
C180        H186   1.112       .  S
C181        H187   1.086       .  S
C181        C182   1.365       .  D
C182        C315   1.441       .  S
C183        H188   1.087       .  S
C183        C184   1.363       .  D
C184        C326   1.440       .  S
C189        C190   1.535       .  S
C189        C195   1.535       .  S
C189        C193   1.536       .  S
C189        C311   1.467       .  S
C190        H197   1.087       .  S
C190        C191   1.363       .  D
C191        C192   1.534       .  S
C191        C327   1.440       .  S
C192        C196   1.534       .  S
C192        C194   1.535       .  S
C192        H198   1.112       .  S
C193        H199   1.086       .  S
C193        C194   1.365       .  D
C194        C310   1.441       .  S
C195        H200   1.087       .  S
C195        C196   1.363       .  D
C196        C313   1.440       .  S
C201        C202   1.535       .  S
C201        C207   1.535       .  S
C201        C205   1.536       .  S
C201        C307   1.467       .  S
C202        H209   1.087       .  S
C202        C203   1.363       .  D
C203        C204   1.534       .  S
C203        C314   1.440       .  S
C204        C208   1.534       .  S
C204        C206   1.536       .  S
C204        H210   1.112       .  S
C205        H211   1.086       .  S
C205        C206   1.365       .  D
C206        C306   1.441       .  S
C207        H212   1.087       .  S
C207        C208   1.363       .  D
C208        C320   1.440       .  S
C213        C214   1.535       .  S
C213        C219   1.535       .  S
C213        C217   1.536       .  S
C213        C299   1.467       .  S
C214        H221   1.087       .  S
C214        C215   1.363       .  D
C215        C216   1.534       .  S
C215        C303   1.440       .  S
C216        C220   1.534       .  S
C216        C218   1.535       .  S
C216        H222   1.112       .  S
C217        H223   1.086       .  S
C217        C218   1.365       .  D
C218        C322   1.441       .  S
C219        H224   1.087       .  S
C219        C220   1.363       .  D
C220        C301   1.440       .  S
C225        C226   1.535       .  S
C225        C231   1.535       .  S
C225        C229   1.536       .  S
C225        C295   1.467       .  S
C226        H233   1.087       .  S
C226        C227   1.363       .  D
C227        C228   1.534       .  S
C227        C302   1.440       .  S
C228        C232   1.534       .  S
C228        C230   1.535       .  S
C228        H234   1.112       .  S
C229        H235   1.086       .  S
C229        C230   1.365       .  D
C230        C316   1.441       .  S
C231        H236   1.087       .  S
C231        C232   1.363       .  D
C232        C297   1.440       .  S
C237        C238   1.535       .  S
C237        C243   1.535       .  S
C237        C241   1.536       .  S
C237        C291   1.467       .  S
C238        H245   1.087       .  S
C238        C239   1.363       .  D
C239        C240   1.534       .  S
C239        C293   1.440       .  S
C240        C244   1.534       .  S
C240        C242   1.535       .  S
C240        H246   1.112       .  S
C241        H247   1.086       .  S
C241        C242   1.365       .  D
C242        C309   1.441       .  S
C243        H248   1.087       .  S
C243        C244   1.363       .  D
C244        C304   1.440       .  S
C249        C250   1.535       .  S
C249        C255   1.535       .  S
C249        C253   1.536       .  S
C249        C290   1.467       .  S
C250        H257   1.087       .  S
C250        C251   1.363       .  D
C251        C252   1.534       .  S
C251        C298   1.440       .  S
C252        C256   1.534       .  S
C252        C254   1.536       .  S
C252        H258   1.112       .  S
C253        H259   1.086       .  S
C253        C254   1.365       .  D
C254        C305   1.441       .  S
C255        H260   1.087       .  S
C255        C256   1.363       .  D
C256        C294   1.440       .  S
O261       Ni269   1.917       .  S
O261        C271   1.280       .  A
O262       Ni761   1.917   1_556  S
O262        C272   1.280       .  A
O263        C273   1.280       .  A
O264       Ni925   1.917       .  S
O264        C274   1.280       .  A
O265       Ni926   1.917       .  S
O265        C274   1.280       .  A
O266        C273   1.280       .  A
O267       Ni762   1.917   1_556  S
O267        C272   1.280       .  A
O268       Ni270   1.917       .  S
O268        C271   1.280       .  A
Ni269       O754   1.917   1_455  S
Ni269       O920   1.917   1_455  S
Ni269      Ni270   2.394       .  S
Ni270       O921   1.917   1_455  S
Ni270       O759   1.917   1_455  S
C271        C296   1.434       .  S
C272        C312   1.434       .  S
C273        C318   1.434       .  S
C274        C292   1.434       .  S
O275       Ni611   1.917       .  S
O275        C285   1.280       .  A
O276        C286   1.280       .  A
O277       Ni447   1.917   1_556  S
O277        C287   1.280       .  A
O278       Ni283   1.917       .  S
O278        C288   1.280       .  A
O279       Ni284   1.917       .  S
O279        C288   1.280       .  A
O280       Ni448   1.917   1_556  S
O280        C287   1.280       .  A
O281        C286   1.280       .  A
O282       Ni612   1.917       .  S
O282        C285   1.280       .  A
Ni283       O603   1.917   1_545  S
Ni283       O441   1.917   1_545  S
Ni283      Ni284   2.394       .  S
Ni284       O444   1.917   1_545  S
Ni284       O610   1.917   1_545  S
C285        C289   1.434       .  S
C286        C324   1.434       .  S
C287        C308   1.434       .  S
C288        C300   1.434       .  S
C289        C290   1.205       .  T
C291        C292   1.205       .  T
C293        C294   1.205       .  T
C295        C296   1.205       .  T
C297        C298   1.205       .  T
C299        C300   1.205       .  T
C301        C302   1.205       .  T
C303        C304   1.205       .  T
C305        C306   1.206       .  T
C307        C308   1.205       .  T
C309        C310   1.206       .  T
C311        C312   1.205       .  T
C313        C314   1.205       .  T
C315        C316   1.206       .  T
C317        C318   1.205       .  T
C319        C320   1.205       .  T
C321        C322   1.205       .  T
C323        C324   1.205       .  T
C325        C326   1.205       .  T
C327        C328   1.205       .  T
C329        C330   1.535       .  S
C329        C335   1.535       .  S
C329        C333   1.536       .  S
C329        C487   1.467       .  S
C330        H337   1.087       .  S
C330        C331   1.363       .  D
C331        C332   1.534       .  S
C331        C489   1.440       .  S
C332        C336   1.534       .  S
C332        C334   1.535       .  S
C332        H338   1.112       .  S
C333        H339   1.086       .  S
C333        C334   1.365       .  D
C334        C485   1.441       .  S
C335        H340   1.087       .  S
C335        C336   1.363       .  D
C336        C492   1.440       .  S
C341        C342   1.535       .  S
C341        C347   1.535       .  S
C341        C345   1.536       .  S
C341        C481   1.467       .  S
C342        H349   1.087       .  S
C342        C343   1.363       .  D
C343        C344   1.534       .  S
C343        C483   1.440       .  S
C344        C348   1.534       .  S
C344        C346   1.535       .  S
C344        H350   1.112       .  S
C345        H351   1.086       .  S
C345        C346   1.365       .  D
C346        C479   1.441       .  S
C347        H352   1.087       .  S
C347        C348   1.363       .  D
C348        C490   1.440       .  S
C353        C354   1.535       .  S
C353        C359   1.535       .  S
C353        C357   1.536       .  S
C353        C475   1.467       .  S
C354        H361   1.087       .  S
C354        C355   1.363       .  D
C355        C356   1.534       .  S
C355        C491   1.440       .  S
C356        C360   1.534       .  S
C356        C358   1.535       .  S
C356        H362   1.112       .  S
C357        H363   1.086       .  S
C357        C358   1.365       .  D
C358        C474   1.441       .  S
C359        H364   1.087       .  S
C359        C360   1.363       .  D
C360        C477   1.440       .  S
C365        C366   1.535       .  S
C365        C371   1.535       .  S
C365        C369   1.536       .  S
C365        C471   1.467       .  S
C366        H373   1.087       .  S
C366        C367   1.363       .  D
C367        C368   1.534       .  S
C367        C478   1.440       .  S
C368        C372   1.534       .  S
C368        C370   1.536       .  S
C368        H374   1.112       .  S
C369        H375   1.086       .  S
C369        C370   1.365       .  D
C370        C470   1.441       .  S
C371        H376   1.087       .  S
C371        C372   1.363       .  D
C372        C484   1.440       .  S
C377        C378   1.535       .  S
C377        C383   1.535       .  S
C377        C381   1.536       .  S
C377        C463   1.467       .  S
C378        H385   1.087       .  S
C378        C379   1.363       .  D
C379        C380   1.534       .  S
C379        C467   1.440       .  S
C380        C384   1.534       .  S
C380        C382   1.535       .  S
C380        H386   1.112       .  S
C381        H387   1.086       .  S
C381        C382   1.365       .  D
C382        C486   1.441       .  S
C383        H388   1.087       .  S
C383        C384   1.363       .  D
C384        C465   1.440       .  S
C389        C390   1.535       .  S
C389        C395   1.535       .  S
C389        C393   1.536       .  S
C389        C459   1.467       .  S
C390        H397   1.087       .  S
C390        C391   1.363       .  D
C391        C392   1.534       .  S
C391        C466   1.440       .  S
C392        C396   1.534       .  S
C392        C394   1.535       .  S
C392        H398   1.112       .  S
C393        H399   1.086       .  S
C393        C394   1.365       .  D
C394        C480   1.441       .  S
C395        H400   1.087       .  S
C395        C396   1.363       .  D
C396        C461   1.440       .  S
C401        C402   1.535       .  S
C401        C407   1.535       .  S
C401        C405   1.536       .  S
C401        C455   1.467       .  S
C402        H409   1.087       .  S
C402        C403   1.363       .  D
C403        C404   1.534       .  S
C403        C457   1.440       .  S
C404        C408   1.534       .  S
C404        C406   1.535       .  S
C404        H410   1.112       .  S
C405        H411   1.086       .  S
C405        C406   1.365       .  D
C406        C473   1.441       .  S
C407        H412   1.087       .  S
C407        C408   1.363       .  D
C408        C468   1.440       .  S
C413        C414   1.535       .  S
C413        C419   1.535       .  S
C413        C417   1.536       .  S
C413        C454   1.467       .  S
C414        H421   1.087       .  S
C414        C415   1.363       .  D
C415        C416   1.534       .  S
C415        C462   1.440       .  S
C416        C420   1.534       .  S
C416        C418   1.536       .  S
C416        H422   1.112       .  S
C417        H423   1.086       .  S
C417        C418   1.365       .  D
C418        C469   1.441       .  S
C419        H424   1.087       .  S
C419        C420   1.363       .  D
C420        C458   1.440       .  S
O425       Ni433   1.917       .  S
O425        C435   1.280       .  A
O426      Ni1253   1.917       .  S
O426        C436   1.280       .  A
O427       Ni597   1.917       .  S
O427        C437   1.280       .  A
O428      Ni1089   1.917       .  S
O428        C438   1.280       .  A
O429      Ni1090   1.917       .  S
O429        C438   1.280       .  A
O430       Ni598   1.917       .  S
O430        C437   1.280       .  A
O431      Ni1254   1.917       .  S
O431        C436   1.280       .  A
O432       Ni434   1.917       .  S
O432        C435   1.280       .  A
Ni433      O1246   1.917   1_454  S
Ni433       O591   1.917   1_554  S
Ni433      O1084   1.917   1_455  S
Ni433      Ni434   2.394       .  S
Ni434      O1085   1.917   1_455  S
Ni434       O594   1.917   1_554  S
Ni434      O1251   1.917   1_454  S
C435        C460   1.434       .  S
C436        C476   1.434       .  S
C437        C482   1.434       .  S
C438        C456   1.434       .  S
O439        C449   1.280       .  A
O440       Ni611   1.917       .  S
O440        C450   1.280       .  A
O441        C451   1.280       .  A
O442       Ni447   1.917       .  S
O442        C452   1.280       .  A
O443       Ni448   1.917       .  S
O443        C452   1.280       .  A
O444        C451   1.280       .  A
O445       Ni612   1.917       .  S
O445        C450   1.280       .  A
O446        C449   1.280       .  A
Ni447       O604   1.917   1_554  S
Ni447      Ni448   2.394       .  S
Ni448       O609   1.917   1_554  S
C449        C453   1.434       .  S
C450        C488   1.434       .  S
C451        C472   1.434       .  S
C452        C464   1.434       .  S
C453        C454   1.205       .  T
C455        C456   1.205       .  T
C457        C458   1.205       .  T
C459        C460   1.205       .  T
C461        C462   1.205       .  T
C463        C464   1.205       .  T
C465        C466   1.205       .  T
C467        C468   1.205       .  T
C469        C470   1.206       .  T
C471        C472   1.205       .  T
C473        C474   1.206       .  T
C475        C476   1.205       .  T
C477        C478   1.205       .  T
C479        C480   1.206       .  T
C481        C482   1.205       .  T
C483        C484   1.205       .  T
C485        C486   1.205       .  T
C487        C488   1.205       .  T
C489        C490   1.205       .  T
C491        C492   1.205       .  T
C493        C494   1.535       .  S
C493        C499   1.535       .  S
C493        C497   1.536       .  S
C493        C651   1.467       .  S
C494        H501   1.087       .  S
C494        C495   1.363       .  D
C495        C496   1.534       .  S
C495        C653   1.440       .  S
C496        C500   1.534       .  S
C496        C498   1.535       .  S
C496        H502   1.112       .  S
C497        H503   1.086       .  S
C497        C498   1.365       .  D
C498        C649   1.441       .  S
C499        H504   1.087       .  S
C499        C500   1.363       .  D
C500        C656   1.440       .  S
C505        C506   1.535       .  S
C505        C511   1.535       .  S
C505        C509   1.536       .  S
C505        C645   1.467       .  S
C506        H513   1.087       .  S
C506        C507   1.363       .  D
C507        C508   1.534       .  S
C507        C647   1.440       .  S
C508        C512   1.534       .  S
C508        C510   1.535       .  S
C508        H514   1.112       .  S
C509        H515   1.086       .  S
C509        C510   1.365       .  D
C510        C643   1.441       .  S
C511        H516   1.087       .  S
C511        C512   1.363       .  D
C512        C654   1.440       .  S
C517        C518   1.535       .  S
C517        C523   1.535       .  S
C517        C521   1.536       .  S
C517        C639   1.467       .  S
C518        H525   1.087       .  S
C518        C519   1.363       .  D
C519        C520   1.534       .  S
C519        C655   1.440       .  S
C520        C524   1.534       .  S
C520        C522   1.535       .  S
C520        H526   1.112       .  S
C521        H527   1.086       .  S
C521        C522   1.365       .  D
C522        C638   1.441       .  S
C523        H528   1.087       .  S
C523        C524   1.363       .  D
C524        C641   1.440       .  S
C529        C530   1.535       .  S
C529        C535   1.535       .  S
C529        C533   1.536       .  S
C529        C635   1.467       .  S
C530        H537   1.087       .  S
C530        C531   1.363       .  D
C531        C532   1.534       .  S
C531        C642   1.440       .  S
C532        C536   1.534       .  S
C532        C534   1.536       .  S
C532        H538   1.112       .  S
C533        H539   1.086       .  S
C533        C534   1.365       .  D
C534        C634   1.441       .  S
C535        H540   1.087       .  S
C535        C536   1.363       .  D
C536        C648   1.440       .  S
C541        C542   1.535       .  S
C541        C547   1.535       .  S
C541        C545   1.536       .  S
C541        C627   1.467       .  S
C542        H549   1.087       .  S
C542        C543   1.363       .  D
C543        C544   1.534       .  S
C543        C631   1.440       .  S
C544        C548   1.534       .  S
C544        C546   1.535       .  S
C544        H550   1.112       .  S
C545        H551   1.086       .  S
C545        C546   1.365       .  D
C546        C650   1.441       .  S
C547        H552   1.087       .  S
C547        C548   1.363       .  D
C548        C629   1.440       .  S
C553        C554   1.535       .  S
C553        C559   1.535       .  S
C553        C557   1.536       .  S
C553        C623   1.467       .  S
C554        H561   1.087       .  S
C554        C555   1.363       .  D
C555        C556   1.534       .  S
C555        C630   1.440       .  S
C556        C560   1.534       .  S
C556        C558   1.535       .  S
C556        H562   1.112       .  S
C557        H563   1.086       .  S
C557        C558   1.365       .  D
C558        C644   1.441       .  S
C559        H564   1.087       .  S
C559        C560   1.363       .  D
C560        C625   1.440       .  S
C565        C566   1.535       .  S
C565        C571   1.535       .  S
C565        C569   1.536       .  S
C565        C619   1.467       .  S
C566        H573   1.087       .  S
C566        C567   1.363       .  D
C567        C568   1.534       .  S
C567        C621   1.440       .  S
C568        C572   1.534       .  S
C568        C570   1.535       .  S
C568        H574   1.112       .  S
C569        H575   1.086       .  S
C569        C570   1.365       .  D
C570        C637   1.441       .  S
C571        H576   1.087       .  S
C571        C572   1.363       .  D
C572        C632   1.440       .  S
C577        C578   1.535       .  S
C577        C583   1.535       .  S
C577        C581   1.536       .  S
C577        C618   1.467       .  S
C578        H585   1.087       .  S
C578        C579   1.363       .  D
C579        C580   1.534       .  S
C579        C626   1.440       .  S
C580        C584   1.534       .  S
C580        C582   1.536       .  S
C580        H586   1.112       .  S
C581        H587   1.086       .  S
C581        C582   1.365       .  D
C582        C633   1.441       .  S
C583        H588   1.087       .  S
C583        C584   1.363       .  D
C584        C622   1.440       .  S
O589       Ni597   1.917       .  S
O589        C599   1.280       .  A
O590      Ni1089   1.917   1_556  S
O590        C600   1.280       .  A
O591        C601   1.280       .  A
O592      Ni1253   1.917       .  S
O592        C602   1.280       .  A
O593      Ni1254   1.917       .  S
O593        C602   1.280       .  A
O594        C601   1.280       .  A
O595      Ni1090   1.917   1_556  S
O595        C600   1.280       .  A
O596       Ni598   1.917       .  S
O596        C599   1.280       .  A
Ni597      O1082   1.917   1_455  S
Ni597      O1248   1.917   1_455  S
Ni597      Ni598   2.394       .  S
Ni598      O1249   1.917   1_455  S
Ni598      O1087   1.917   1_455  S
C599        C624   1.434       .  S
C600        C640   1.434       .  S
C601        C646   1.434       .  S
C602        C620   1.434       .  S
O603        C613   1.280       .  A
O604        C614   1.280       .  A
O605        C615   1.280       .  A
O606       Ni611   1.917       .  S
O606        C616   1.280       .  A
O607       Ni612   1.917       .  S
O607        C616   1.280       .  A
O608        C615   1.280       .  A
O609        C614   1.280       .  A
O610        C613   1.280       .  A
Ni611      Ni612   2.394       .  S
C613        C617   1.434       .  S
C614        C652   1.434       .  S
C615        C636   1.434       .  S
C616        C628   1.434       .  S
C617        C618   1.205       .  T
C619        C620   1.205       .  T
C621        C622   1.205       .  T
C623        C624   1.205       .  T
C625        C626   1.205       .  T
C627        C628   1.205       .  T
C629        C630   1.205       .  T
C631        C632   1.205       .  T
C633        C634   1.206       .  T
C635        C636   1.205       .  T
C637        C638   1.206       .  T
C639        C640   1.205       .  T
C641        C642   1.205       .  T
C643        C644   1.206       .  T
C645        C646   1.205       .  T
C647        C648   1.205       .  T
C649        C650   1.205       .  T
C651        C652   1.205       .  T
C653        C654   1.205       .  T
C655        C656   1.205       .  T
C657        C658   1.535       .  S
C657        C663   1.535       .  S
C657        C661   1.536       .  S
C657        C815   1.467       .  S
C658        H665   1.087       .  S
C658        C659   1.363       .  D
C659        C660   1.534       .  S
C659        C817   1.440       .  S
C660        C664   1.534       .  S
C660        C662   1.535       .  S
C660        H666   1.112       .  S
C661        H667   1.086       .  S
C661        C662   1.365       .  D
C662        C813   1.441       .  S
C663        H668   1.087       .  S
C663        C664   1.363       .  D
C664        C820   1.440       .  S
C669        C670   1.535       .  S
C669        C675   1.535       .  S
C669        C673   1.536       .  S
C669        C809   1.467       .  S
C670        H677   1.087       .  S
C670        C671   1.363       .  D
C671        C672   1.534       .  S
C671        C811   1.440       .  S
C672        C676   1.534       .  S
C672        C674   1.535       .  S
C672        H678   1.112       .  S
C673        H679   1.086       .  S
C673        C674   1.365       .  D
C674        C807   1.441       .  S
C675        H680   1.087       .  S
C675        C676   1.363       .  D
C676        C818   1.440       .  S
C681        C682   1.535       .  S
C681        C687   1.535       .  S
C681        C685   1.536       .  S
C681        C803   1.467       .  S
C682        H689   1.087       .  S
C682        C683   1.363       .  D
C683        C684   1.534       .  S
C683        C819   1.440       .  S
C684        C688   1.534       .  S
C684        C686   1.535       .  S
C684        H690   1.112       .  S
C685        H691   1.086       .  S
C685        C686   1.365       .  D
C686        C802   1.441       .  S
C687        H692   1.087       .  S
C687        C688   1.363       .  D
C688        C805   1.440       .  S
C693        C694   1.535       .  S
C693        C699   1.535       .  S
C693        C697   1.536       .  S
C693        C799   1.467       .  S
C694        H701   1.087       .  S
C694        C695   1.363       .  D
C695        C696   1.534       .  S
C695        C806   1.440       .  S
C696        C700   1.534       .  S
C696        C698   1.536       .  S
C696        H702   1.112       .  S
C697        H703   1.086       .  S
C697        C698   1.365       .  D
C698        C798   1.441       .  S
C699        H704   1.087       .  S
C699        C700   1.363       .  D
C700        C812   1.440       .  S
C705        C706   1.535       .  S
C705        C711   1.535       .  S
C705        C709   1.536       .  S
C705        C791   1.467       .  S
C706        H713   1.087       .  S
C706        C707   1.363       .  D
C707        C708   1.534       .  S
C707        C795   1.440       .  S
C708        C712   1.534       .  S
C708        C710   1.535       .  S
C708        H714   1.112       .  S
C709        H715   1.086       .  S
C709        C710   1.365       .  D
C710        C814   1.441       .  S
C711        H716   1.087       .  S
C711        C712   1.363       .  D
C712        C793   1.440       .  S
C717        C718   1.535       .  S
C717        C723   1.535       .  S
C717        C721   1.536       .  S
C717        C787   1.467       .  S
C718        H725   1.087       .  S
C718        C719   1.363       .  D
C719        C720   1.534       .  S
C719        C794   1.440       .  S
C720        C724   1.534       .  S
C720        C722   1.535       .  S
C720        H726   1.112       .  S
C721        H727   1.086       .  S
C721        C722   1.365       .  D
C722        C808   1.441       .  S
C723        H728   1.087       .  S
C723        C724   1.363       .  D
C724        C789   1.440       .  S
C729        C730   1.535       .  S
C729        C735   1.535       .  S
C729        C733   1.536       .  S
C729        C783   1.467       .  S
C730        H737   1.087       .  S
C730        C731   1.363       .  D
C731        C732   1.534       .  S
C731        C785   1.440       .  S
C732        C736   1.534       .  S
C732        C734   1.535       .  S
C732        H738   1.112       .  S
C733        H739   1.086       .  S
C733        C734   1.365       .  D
C734        C801   1.441       .  S
C735        H740   1.087       .  S
C735        C736   1.363       .  D
C736        C796   1.440       .  S
C741        C742   1.535       .  S
C741        C747   1.535       .  S
C741        C745   1.536       .  S
C741        C782   1.467       .  S
C742        H749   1.087       .  S
C742        C743   1.363       .  D
C743        C744   1.534       .  S
C743        C790   1.440       .  S
C744        C748   1.534       .  S
C744        C746   1.536       .  S
C744        H750   1.112       .  S
C745        H751   1.086       .  S
C745        C746   1.365       .  D
C746        C797   1.441       .  S
C747        H752   1.087       .  S
C747        C748   1.363       .  D
C748        C786   1.440       .  S
O753       Ni761   1.917       .  S
O753        C763   1.280       .  A
O754        C764   1.280       .  A
O755       Ni925   1.917       .  S
O755        C765   1.280       .  A
O756        C766   1.280       .  A
O757        C766   1.280       .  A
O758       Ni926   1.917       .  S
O758        C765   1.280       .  A
O759        C764   1.280       .  A
O760       Ni762   1.917       .  S
O760        C763   1.280       .  A
Ni761       O919   1.917   1_554  S
Ni761      Ni762   2.394       .  S
Ni762       O922   1.917   1_554  S
C763        C788   1.434       .  S
C764        C804   1.434       .  S
C765        C810   1.434       .  S
C766        C784   1.434       .  S
O767      Ni1103   1.917       .  S
O767        C777   1.280       .  A
O768       Ni939   1.917       .  S
O768        C778   1.280       .  A
O769      Ni1267   1.917       .  S
O769        C779   1.280       .  A
O770       Ni775   1.917       .  S
O770        C780   1.280       .  A
O771       Ni776   1.917       .  S
O771        C780   1.280       .  A
O772      Ni1268   1.917       .  S
O772        C779   1.280       .  A
O773       Ni940   1.917       .  S
O773        C778   1.280       .  A
O774      Ni1104   1.917       .  S
O774        C777   1.280       .  A
Ni775      O1095   1.917   1_545  S
Ni775       O932   1.917   1_554  S
Ni775      O1261   1.917   1_544  S
Ni775      Ni776   2.394       .  S
Ni776      O1264   1.917   1_544  S
Ni776       O937   1.917   1_554  S
Ni776      O1102   1.917   1_545  S
C777        C781   1.434       .  S
C778        C816   1.434       .  S
C779        C800   1.434       .  S
C780        C792   1.434       .  S
C781        C782   1.205       .  T
C783        C784   1.205       .  T
C785        C786   1.205       .  T
C787        C788   1.205       .  T
C789        C790   1.205       .  T
C791        C792   1.205       .  T
C793        C794   1.205       .  T
C795        C796   1.205       .  T
C797        C798   1.206       .  T
C799        C800   1.205       .  T
C801        C802   1.206       .  T
C803        C804   1.205       .  T
C805        C806   1.205       .  T
C807        C808   1.206       .  T
C809        C810   1.205       .  T
C811        C812   1.205       .  T
C813        C814   1.205       .  T
C815        C816   1.205       .  T
C817        C818   1.205       .  T
C819        C820   1.205       .  T
C821        C822   1.535       .  S
C821        C827   1.535       .  S
C821        C825   1.536       .  S
C821        C979   1.467       .  S
C822        H829   1.087       .  S
C822        C823   1.363       .  D
C823        C824   1.534       .  S
C823        C981   1.440       .  S
C824        C828   1.534       .  S
C824        C826   1.535       .  S
C824        H830   1.112       .  S
C825        H831   1.086       .  S
C825        C826   1.365       .  D
C826        C977   1.441       .  S
C827        H832   1.087       .  S
C827        C828   1.363       .  D
C828        C984   1.440       .  S
C833        C834   1.535       .  S
C833        C839   1.535       .  S
C833        C837   1.536       .  S
C833        C973   1.467       .  S
C834        H841   1.087       .  S
C834        C835   1.363       .  D
C835        C836   1.534       .  S
C835        C975   1.440       .  S
C836        C840   1.534       .  S
C836        C838   1.535       .  S
C836        H842   1.112       .  S
C837        H843   1.086       .  S
C837        C838   1.365       .  D
C838        C971   1.441       .  S
C839        H844   1.087       .  S
C839        C840   1.363       .  D
C840        C982   1.440       .  S
C845        C846   1.535       .  S
C845        C851   1.535       .  S
C845        C849   1.536       .  S
C845        C967   1.467       .  S
C846        H853   1.087       .  S
C846        C847   1.363       .  D
C847        C848   1.534       .  S
C847        C983   1.440       .  S
C848        C852   1.534       .  S
C848        C850   1.535       .  S
C848        H854   1.112       .  S
C849        H855   1.086       .  S
C849        C850   1.365       .  D
C850        C966   1.441       .  S
C851        H856   1.087       .  S
C851        C852   1.363       .  D
C852        C969   1.440       .  S
C857        C858   1.535       .  S
C857        C863   1.535       .  S
C857        C861   1.536       .  S
C857        C963   1.467       .  S
C858        H865   1.087       .  S
C858        C859   1.363       .  D
C859        C860   1.534       .  S
C859        C970   1.440       .  S
C860        C864   1.534       .  S
C860        C862   1.536       .  S
C860        H866   1.112       .  S
C861        H867   1.086       .  S
C861        C862   1.365       .  D
C862        C962   1.441       .  S
C863        H868   1.087       .  S
C863        C864   1.363       .  D
C864        C976   1.440       .  S
C869        C870   1.535       .  S
C869        C875   1.535       .  S
C869        C873   1.536       .  S
C869        C955   1.467       .  S
C870        H877   1.087       .  S
C870        C871   1.363       .  D
C871        C872   1.534       .  S
C871        C959   1.440       .  S
C872        C876   1.534       .  S
C872        C874   1.535       .  S
C872        H878   1.112       .  S
C873        H879   1.086       .  S
C873        C874   1.365       .  D
C874        C978   1.441       .  S
C875        H880   1.087       .  S
C875        C876   1.363       .  D
C876        C957   1.440       .  S
C881        C882   1.535       .  S
C881        C887   1.535       .  S
C881        C885   1.536       .  S
C881        C951   1.467       .  S
C882        H889   1.087       .  S
C882        C883   1.363       .  D
C883        C884   1.534       .  S
C883        C958   1.440       .  S
C884        C888   1.534       .  S
C884        C886   1.535       .  S
C884        H890   1.112       .  S
C885        H891   1.086       .  S
C885        C886   1.365       .  D
C886        C972   1.441       .  S
C887        H892   1.087       .  S
C887        C888   1.363       .  D
C888        C953   1.440       .  S
C893        C894   1.535       .  S
C893        C899   1.535       .  S
C893        C897   1.536       .  S
C893        C947   1.467       .  S
C894        H901   1.087       .  S
C894        C895   1.363       .  D
C895        C896   1.534       .  S
C895        C949   1.440       .  S
C896        C900   1.534       .  S
C896        C898   1.535       .  S
C896        H902   1.112       .  S
C897        H903   1.086       .  S
C897        C898   1.365       .  D
C898        C965   1.441       .  S
C899        H904   1.087       .  S
C899        C900   1.363       .  D
C900        C960   1.440       .  S
C905        C906   1.535       .  S
C905        C911   1.535       .  S
C905        C909   1.536       .  S
C905        C946   1.467       .  S
C906        H913   1.087       .  S
C906        C907   1.363       .  D
C907        C908   1.534       .  S
C907        C954   1.440       .  S
C908        C912   1.534       .  S
C908        C910   1.536       .  S
C908        H914   1.112       .  S
C909        H915   1.086       .  S
C909        C910   1.365       .  D
C910        C961   1.441       .  S
C911        H916   1.087       .  S
C911        C912   1.363       .  D
C912        C950   1.440       .  S
O917       Ni925   1.917       .  S
O917        C927   1.280       .  A
O918        C928   1.280       .  A
O919        C929   1.280       .  A
O920        C930   1.280       .  A
O921        C930   1.280       .  A
O922        C929   1.280       .  A
O923        C928   1.280       .  A
O924       Ni926   1.917       .  S
O924        C927   1.280       .  A
Ni925      Ni926   2.394       .  S
C927        C952   1.434       .  S
C928        C968   1.434       .  S
C929        C974   1.434       .  S
C930        C948   1.434       .  S
O931      Ni1267   1.917       .  S
O931        C941   1.280       .  A
O932        C942   1.280       .  A
O933      Ni1103   1.917   1_556  S
O933        C943   1.280       .  A
O934       Ni939   1.917       .  S
O934        C944   1.280       .  A
O935       Ni940   1.917       .  S
O935        C944   1.280       .  A
O936      Ni1104   1.917   1_556  S
O936        C943   1.280       .  A
O937        C942   1.280       .  A
O938      Ni1268   1.917       .  S
O938        C941   1.280       .  A
Ni939      O1259   1.917   1_545  S
Ni939      O1097   1.917   1_545  S
Ni939      Ni940   2.394       .  S
Ni940      O1100   1.917   1_545  S
Ni940      O1266   1.917   1_545  S
C941        C945   1.434       .  S
C942        C980   1.434       .  S
C943        C964   1.434       .  S
C944        C956   1.434       .  S
C945        C946   1.205       .  T
C947        C948   1.205       .  T
C949        C950   1.205       .  T
C951        C952   1.205       .  T
C953        C954   1.205       .  T
C955        C956   1.205       .  T
C957        C958   1.205       .  T
C959        C960   1.205       .  T
C961        C962   1.206       .  T
C963        C964   1.205       .  T
C965        C966   1.206       .  T
C967        C968   1.205       .  T
C969        C970   1.205       .  T
C971        C972   1.206       .  T
C973        C974   1.205       .  T
C975        C976   1.205       .  T
C977        C978   1.205       .  T
C979        C980   1.205       .  T
C981        C982   1.205       .  T
C983        C984   1.205       .  T
C985        C986   1.535       .  S
C985        C991   1.535       .  S
C985        C989   1.536       .  S
C985       C1143   1.467       .  S
C986        H993   1.087       .  S
C986        C987   1.363       .  D
C987        C988   1.534       .  S
C987       C1145   1.440       .  S
C988        C992   1.534       .  S
C988        C990   1.535       .  S
C988        H994   1.112       .  S
C989        H995   1.086       .  S
C989        C990   1.365       .  D
C990       C1141   1.441       .  S
C991        H996   1.087       .  S
C991        C992   1.363       .  D
C992       C1148   1.440       .  S
C997        C998   1.535       .  S
C997       C1003   1.535       .  S
C997       C1001   1.536       .  S
C997       C1137   1.467       .  S
C998       H1005   1.087       .  S
C998        C999   1.363       .  D
C999       C1000   1.534       .  S
C999       C1139   1.440       .  S
C1000      C1004   1.534       .  S
C1000      C1002   1.535       .  S
C1000      H1006   1.112       .  S
C1001      H1007   1.086       .  S
C1001      C1002   1.365       .  D
C1002      C1135   1.441       .  S
C1003      H1008   1.087       .  S
C1003      C1004   1.363       .  D
C1004      C1146   1.440       .  S
C1009      C1010   1.535       .  S
C1009      C1015   1.535       .  S
C1009      C1013   1.536       .  S
C1009      C1131   1.467       .  S
C1010      H1017   1.087       .  S
C1010      C1011   1.363       .  D
C1011      C1012   1.534       .  S
C1011      C1147   1.440       .  S
C1012      C1016   1.534       .  S
C1012      C1014   1.535       .  S
C1012      H1018   1.112       .  S
C1013      H1019   1.086       .  S
C1013      C1014   1.365       .  D
C1014      C1130   1.441       .  S
C1015      H1020   1.087       .  S
C1015      C1016   1.363       .  D
C1016      C1133   1.440       .  S
C1021      C1022   1.535       .  S
C1021      C1027   1.535       .  S
C1021      C1025   1.536       .  S
C1021      C1127   1.467       .  S
C1022      H1029   1.087       .  S
C1022      C1023   1.363       .  D
C1023      C1024   1.534       .  S
C1023      C1134   1.440       .  S
C1024      C1028   1.534       .  S
C1024      C1026   1.536       .  S
C1024      H1030   1.112       .  S
C1025      H1031   1.086       .  S
C1025      C1026   1.365       .  D
C1026      C1126   1.441       .  S
C1027      H1032   1.087       .  S
C1027      C1028   1.363       .  D
C1028      C1140   1.440       .  S
C1033      C1034   1.535       .  S
C1033      C1039   1.535       .  S
C1033      C1037   1.536       .  S
C1033      C1119   1.467       .  S
C1034      H1041   1.087       .  S
C1034      C1035   1.363       .  D
C1035      C1036   1.534       .  S
C1035      C1123   1.440       .  S
C1036      C1040   1.534       .  S
C1036      C1038   1.535       .  S
C1036      H1042   1.112       .  S
C1037      H1043   1.086       .  S
C1037      C1038   1.365       .  D
C1038      C1142   1.441       .  S
C1039      H1044   1.087       .  S
C1039      C1040   1.363       .  D
C1040      C1121   1.440       .  S
C1045      C1046   1.535       .  S
C1045      C1051   1.535       .  S
C1045      C1049   1.536       .  S
C1045      C1115   1.467       .  S
C1046      H1053   1.087       .  S
C1046      C1047   1.363       .  D
C1047      C1048   1.534       .  S
C1047      C1122   1.440       .  S
C1048      C1052   1.534       .  S
C1048      C1050   1.535       .  S
C1048      H1054   1.112       .  S
C1049      H1055   1.086       .  S
C1049      C1050   1.365       .  D
C1050      C1136   1.441       .  S
C1051      H1056   1.087       .  S
C1051      C1052   1.363       .  D
C1052      C1117   1.440       .  S
C1057      C1058   1.535       .  S
C1057      C1063   1.535       .  S
C1057      C1061   1.536       .  S
C1057      C1111   1.467       .  S
C1058      H1065   1.087       .  S
C1058      C1059   1.363       .  D
C1059      C1060   1.534       .  S
C1059      C1113   1.440       .  S
C1060      C1064   1.534       .  S
C1060      C1062   1.535       .  S
C1060      H1066   1.112       .  S
C1061      H1067   1.086       .  S
C1061      C1062   1.365       .  D
C1062      C1129   1.441       .  S
C1063      H1068   1.087       .  S
C1063      C1064   1.363       .  D
C1064      C1124   1.440       .  S
C1069      C1070   1.535       .  S
C1069      C1075   1.535       .  S
C1069      C1073   1.536       .  S
C1069      C1110   1.467       .  S
C1070      H1077   1.087       .  S
C1070      C1071   1.363       .  D
C1071      C1072   1.534       .  S
C1071      C1118   1.440       .  S
C1072      C1076   1.534       .  S
C1072      C1074   1.536       .  S
C1072      H1078   1.112       .  S
C1073      H1079   1.086       .  S
C1073      C1074   1.365       .  D
C1074      C1125   1.441       .  S
C1075      H1080   1.087       .  S
C1075      C1076   1.363       .  D
C1076      C1114   1.440       .  S
O1081     Ni1089   1.917       .  S
O1081      C1091   1.280       .  A
O1082      C1092   1.280       .  A
O1083     Ni1253   1.917       .  S
O1083      C1093   1.280       .  A
O1084      C1094   1.280       .  A
O1085      C1094   1.280       .  A
O1086     Ni1254   1.917       .  S
O1086      C1093   1.280       .  A
O1087      C1092   1.280       .  A
O1088     Ni1090   1.917       .  S
O1088      C1091   1.280       .  A
Ni1089     O1247   1.917   1_554  S
Ni1089    Ni1090   2.394       .  S
Ni1090     O1250   1.917   1_554  S
C1091      C1116   1.434       .  S
C1092      C1132   1.434       .  S
C1093      C1138   1.434       .  S
C1094      C1112   1.434       .  S
O1095      C1105   1.280       .  A
O1096     Ni1267   1.917       .  S
O1096      C1106   1.280       .  A
O1097      C1107   1.280       .  A
O1098     Ni1103   1.917       .  S
O1098      C1108   1.280       .  A
O1099     Ni1104   1.917       .  S
O1099      C1108   1.280       .  A
O1100      C1107   1.280       .  A
O1101     Ni1268   1.917       .  S
O1101      C1106   1.280       .  A
O1102      C1105   1.280       .  A
Ni1103     O1260   1.917   1_554  S
Ni1103    Ni1104   2.394       .  S
Ni1104     O1265   1.917   1_554  S
C1105      C1109   1.434       .  S
C1106      C1144   1.434       .  S
C1107      C1128   1.434       .  S
C1108      C1120   1.434       .  S
C1109      C1110   1.205       .  T
C1111      C1112   1.205       .  T
C1113      C1114   1.205       .  T
C1115      C1116   1.205       .  T
C1117      C1118   1.205       .  T
C1119      C1120   1.205       .  T
C1121      C1122   1.205       .  T
C1123      C1124   1.205       .  T
C1125      C1126   1.206       .  T
C1127      C1128   1.205       .  T
C1129      C1130   1.206       .  T
C1131      C1132   1.205       .  T
C1133      C1134   1.205       .  T
C1135      C1136   1.206       .  T
C1137      C1138   1.205       .  T
C1139      C1140   1.205       .  T
C1141      C1142   1.205       .  T
C1143      C1144   1.205       .  T
C1145      C1146   1.205       .  T
C1147      C1148   1.205       .  T
C1149      C1150   1.535       .  S
C1149      C1155   1.535       .  S
C1149      C1153   1.536       .  S
C1149      C1307   1.467       .  S
C1150      H1157   1.087       .  S
C1150      C1151   1.363       .  D
C1151      C1152   1.534       .  S
C1151      C1309   1.440       .  S
C1152      C1156   1.534       .  S
C1152      C1154   1.535       .  S
C1152      H1158   1.112       .  S
C1153      H1159   1.086       .  S
C1153      C1154   1.365       .  D
C1154      C1305   1.441       .  S
C1155      H1160   1.087       .  S
C1155      C1156   1.363       .  D
C1156      C1312   1.440       .  S
C1161      C1162   1.535       .  S
C1161      C1167   1.535       .  S
C1161      C1165   1.536       .  S
C1161      C1301   1.467       .  S
C1162      H1169   1.087       .  S
C1162      C1163   1.363       .  D
C1163      C1164   1.534       .  S
C1163      C1303   1.440       .  S
C1164      C1168   1.534       .  S
C1164      C1166   1.535       .  S
C1164      H1170   1.112       .  S
C1165      H1171   1.086       .  S
C1165      C1166   1.365       .  D
C1166      C1299   1.441       .  S
C1167      H1172   1.087       .  S
C1167      C1168   1.363       .  D
C1168      C1310   1.440       .  S
C1173      C1174   1.535       .  S
C1173      C1179   1.535       .  S
C1173      C1177   1.536       .  S
C1173      C1295   1.467       .  S
C1174      H1181   1.087       .  S
C1174      C1175   1.363       .  D
C1175      C1176   1.534       .  S
C1175      C1311   1.440       .  S
C1176      C1180   1.534       .  S
C1176      C1178   1.535       .  S
C1176      H1182   1.112       .  S
C1177      H1183   1.086       .  S
C1177      C1178   1.365       .  D
C1178      C1294   1.441       .  S
C1179      H1184   1.087       .  S
C1179      C1180   1.363       .  D
C1180      C1297   1.440       .  S
C1185      C1186   1.535       .  S
C1185      C1191   1.535       .  S
C1185      C1189   1.536       .  S
C1185      C1291   1.467       .  S
C1186      H1193   1.087       .  S
C1186      C1187   1.363       .  D
C1187      C1188   1.534       .  S
C1187      C1298   1.440       .  S
C1188      C1192   1.534       .  S
C1188      C1190   1.536       .  S
C1188      H1194   1.112       .  S
C1189      H1195   1.086       .  S
C1189      C1190   1.365       .  D
C1190      C1290   1.441       .  S
C1191      H1196   1.087       .  S
C1191      C1192   1.363       .  D
C1192      C1304   1.440       .  S
C1197      C1198   1.535       .  S
C1197      C1203   1.535       .  S
C1197      C1201   1.536       .  S
C1197      C1283   1.467       .  S
C1198      H1205   1.087       .  S
C1198      C1199   1.363       .  D
C1199      C1200   1.534       .  S
C1199      C1287   1.440       .  S
C1200      C1204   1.534       .  S
C1200      C1202   1.535       .  S
C1200      H1206   1.112       .  S
C1201      H1207   1.086       .  S
C1201      C1202   1.365       .  D
C1202      C1306   1.441       .  S
C1203      H1208   1.087       .  S
C1203      C1204   1.363       .  D
C1204      C1285   1.440       .  S
C1209      C1210   1.535       .  S
C1209      C1215   1.535       .  S
C1209      C1213   1.536       .  S
C1209      C1279   1.467       .  S
C1210      H1217   1.087       .  S
C1210      C1211   1.363       .  D
C1211      C1212   1.534       .  S
C1211      C1286   1.440       .  S
C1212      C1216   1.534       .  S
C1212      C1214   1.535       .  S
C1212      H1218   1.112       .  S
C1213      H1219   1.086       .  S
C1213      C1214   1.365       .  D
C1214      C1300   1.441       .  S
C1215      H1220   1.087       .  S
C1215      C1216   1.363       .  D
C1216      C1281   1.440       .  S
C1221      C1222   1.535       .  S
C1221      C1227   1.535       .  S
C1221      C1225   1.536       .  S
C1221      C1275   1.467       .  S
C1222      H1229   1.087       .  S
C1222      C1223   1.363       .  D
C1223      C1224   1.534       .  S
C1223      C1277   1.440       .  S
C1224      C1228   1.534       .  S
C1224      C1226   1.535       .  S
C1224      H1230   1.112       .  S
C1225      H1231   1.086       .  S
C1225      C1226   1.365       .  D
C1226      C1293   1.441       .  S
C1227      H1232   1.087       .  S
C1227      C1228   1.363       .  D
C1228      C1288   1.440       .  S
C1233      C1234   1.535       .  S
C1233      C1239   1.535       .  S
C1233      C1237   1.536       .  S
C1233      C1274   1.467       .  S
C1234      H1241   1.087       .  S
C1234      C1235   1.363       .  D
C1235      C1236   1.534       .  S
C1235      C1282   1.440       .  S
C1236      C1240   1.534       .  S
C1236      C1238   1.536       .  S
C1236      H1242   1.112       .  S
C1237      H1243   1.086       .  S
C1237      C1238   1.365       .  D
C1238      C1289   1.441       .  S
C1239      H1244   1.087       .  S
C1239      C1240   1.363       .  D
C1240      C1278   1.440       .  S
O1245     Ni1253   1.917       .  S
O1245      C1255   1.280       .  A
O1246      C1256   1.280       .  A
O1247      C1257   1.280       .  A
O1248      C1258   1.280       .  A
O1249      C1258   1.280       .  A
O1250      C1257   1.280       .  A
O1251      C1256   1.280       .  A
O1252     Ni1254   1.917       .  S
O1252      C1255   1.280       .  A
Ni1253    Ni1254   2.394       .  S
C1255      C1280   1.434       .  S
C1256      C1296   1.434       .  S
C1257      C1302   1.434       .  S
C1258      C1276   1.434       .  S
O1259      C1269   1.280       .  A
O1260      C1270   1.280       .  A
O1261      C1271   1.280       .  A
O1262     Ni1267   1.917       .  S
O1262      C1272   1.280       .  A
O1263     Ni1268   1.917       .  S
O1263      C1272   1.280       .  A
O1264      C1271   1.280       .  A
O1265      C1270   1.280       .  A
O1266      C1269   1.280       .  A
Ni1267    Ni1268   2.394       .  S
C1269      C1273   1.434       .  S
C1270      C1308   1.434       .  S
C1271      C1292   1.434       .  S
C1272      C1284   1.434       .  S
C1273      C1274   1.205       .  T
C1275      C1276   1.205       .  T
C1277      C1278   1.205       .  T
C1279      C1280   1.205       .  T
C1281      C1282   1.205       .  T
C1283      C1284   1.205       .  T
C1285      C1286   1.205       .  T
C1287      C1288   1.205       .  T
C1289      C1290   1.206       .  T
C1291      C1292   1.205       .  T
C1293      C1294   1.206       .  T
C1295      C1296   1.205       .  T
C1297      C1298   1.205       .  T
C1299      C1300   1.206       .  T
C1301      C1302   1.205       .  T
C1303      C1304   1.205       .  T
C1305      C1306   1.205       .  T
C1307      C1308   1.205       .  T
C1309      C1310   1.205       .  T
C1311      C1312   1.205       .  T
