geometry optimzed in LAMMPS
_audit_creation_date              2020-11-30 
_audit_creation_method            'lammps2cif' 
_symmetry_space_group_name_H-M    'P1' 
_symmetry_Int_Tables_number       1 
_symmetry_cell_setting            triclinic 
loop_ 
_symmetry_equiv_pos_as_xyz 
  x,y,z 
_cell_length_a                    57.66474445 
_cell_length_b                    57.990872210181266 
_cell_length_c                    61.73779737773954 
_cell_angle_alpha                 89.38987323999814 
_cell_angle_beta                  89.28016422603815 
_cell_angle_gamma                 88.84011352173634 
loop_ 
_atom_site_label 
_atom_site_type_symbol 
_atom_site_fract_x 
_atom_site_fract_y 
_atom_site_fract_z 
_atom_site_charge 
Zr1        Zr  0.97413746  0.99415850  0.03342717     2.17500
O2          O  0.94063930  0.00549881  0.05565368    -0.51900
O3          O  0.99628206  0.97644001  0.06251263    -0.75100
O4          O  0.94952731  0.96083650  0.04140428    -0.81900
O5          O  0.00037088  0.05363603  0.03707236    -0.83600
O6          O  0.95139910  0.93807818  0.01166996    -0.79200
O7          O  0.97730401  0.02876708  0.05574094    -0.90900
O8          O  0.02971524  0.96218077  0.04762598    -0.76800
O9          O  0.99478431  0.96256256  0.01718231    -0.86300
O10         O  0.01278988  0.00646019  0.02649012    -0.86000
O11         O  0.95405355  0.98605717  0.00055803    -0.72800
O12         O  0.97100909  0.02697455  0.00944563    -0.84900
Zr13       Zr  0.01122989  0.99908481  0.95249783     2.26400
Zr14       Zr  0.97570055  0.95516791  0.98387449     2.06300
Zr15       Zr  0.00987150  0.03827529  0.00183396     2.10000
Zr16       Zr  0.03317772  0.97502053  0.01042207     1.78800
O17         O  0.99448472  0.07711140  0.99541358    -0.93700
O18         O  0.04194292  0.93385501  0.00771614    -0.41500
O19         O  0.03121909  0.00711568  0.98562454    -0.78100
O20         O  0.01497782  0.96646514  0.97709613    -0.96800
O21         O  0.97235950  0.98713475  0.95921839    -0.90100
O22         O  0.99055623  0.03073224  0.96876169    -0.93000
C23         C  0.01571241  0.96534919  0.06364360     1.00800
C24         C  0.98821312  0.04787420  0.05373116     1.13700
C25         C  0.94388487  0.94278545  0.03080583     1.04500
O26         O  0.98720090  0.91487785  0.98914835    -0.95100
O27         O  0.98920051  0.93756650  0.95045158    -0.90900
O28         O  0.01517088  0.96143392  0.93433980    -0.84000
C29         C  0.00474444  0.94202666  0.93602266     1.11100
O30         O  0.91628073  0.02976543  0.99505390    -0.97100
Zr31       Zr  0.95210747  0.01839714  0.97639136     1.88900
O32         O  0.98559353  0.01470435  0.92404562    -0.73800
O33         O  0.93974634  0.94473725  0.96649558    -0.53000
O34         O  0.91880266  0.99771847  0.96330282    -0.97700
O35         O  0.94242253  0.05949101  0.97433843    -0.54900
O36         O  0.95147819  0.02768930  0.93854886    -0.74300
C37         C  0.96525415  0.02419463  0.92251740     0.98100
O38         O  0.03851761  0.99951353  0.92193910    -0.63100
O39         O  0.04481665  0.05199632  0.01896066    -0.57900
O40         O  0.04229243  0.02754238  0.94862044    -0.94600
O41         O  0.03600784  0.05392138  0.97498717    -0.93000
O42         O  0.06614822  0.99033020  0.02956098    -0.93400
O43         O  0.07169590  0.96966205  0.99443584    -0.92100
C44         C  0.04711034  0.04640488  0.95831615     1.16900
H45         H  0.02005406  0.01097676  0.03975431     0.32900
H46         H  0.02428664  0.95395615  0.97124595     0.43700
H47         H  0.99068172  0.04415336  0.95936144     0.37200
H48         H  0.93840055  0.98138052  0.00380547     0.33700
H49         H  0.05633224  0.93144668  0.01610003     0.25500
H50         H  0.94294057  0.94628573  0.95076011     0.31400
H51         H  0.92421973  0.99053954  0.94961835     0.37400
H52         H  0.05950585  0.00076994  0.04069793     0.31800
H53         H  0.05793389  0.04469736  0.01090384     0.30700
H54         H  0.97859582  0.07696521  0.00167325     0.32400
H55         H  0.92907971  0.06068101  0.96441440     0.31300
H56         H  0.06921446  0.97078743  0.97861742     0.35300
H57         H  0.04980717  0.98674761  0.92468912     0.28100
H58         H  0.94223580  0.99645830  0.06927193     0.32300
H59         H  0.91689059  0.02147595  0.00914395     0.35200
H60         H  0.04545242  0.06858635  0.01507601     0.27800
H61         H  0.02960395  0.99464032  0.90922731     0.40600
H62         H  0.99115715  0.91349395  0.00467016     0.30700
H63         H  0.02981563  0.92637434  0.01665971     0.38300
H64         H  0.95534459  0.06650471  0.96607313     0.30200
H65         H  0.93858954  0.92790960  0.96905228     0.30200
H66         H  0.92700227  0.99907411  0.04842980     0.30500
C67         C  0.05402715  0.34002417  0.12817681     0.79700
N68         N  0.03993304  0.32172629  0.12646992    -0.78600
C69         C  0.04130984  0.30369220  0.14040382     0.82100
N70         N  0.05705608  0.30399201  0.15643674    -0.78600
C71         C  0.07133798  0.32217920  0.15875784     0.82200
N72         N  0.06993197  0.34035304  0.14443576    -0.80300
C73         C  0.95555562  0.15167296  0.13237761     0.79700
N74         N  0.97283597  0.16735022  0.13089415    -0.78600
C75         C  0.96998342  0.18850451  0.13973515     0.82100
N76         N  0.95011044  0.19392177  0.15036854    -0.78600
C77         C  0.93287125  0.17858900  0.15245389     0.82200
N78         N  0.93542170  0.15743210  0.14315373    -0.80300
C79         C  0.82834899  0.15892653  0.41411261     0.79700
N80         N  0.81210447  0.15949713  0.43031122    -0.78600
C81         C  0.81307834  0.14396460  0.44687874     0.82100
N82         N  0.83047705  0.12792201  0.44727504    -0.78600
C83         C  0.84706965  0.12731169  0.43149902     0.82200
N84         N  0.84586092  0.14280127  0.41483420    -0.80300
C85         C  0.70639875  0.12966782  0.57512429     0.79700
N86         N  0.68913236  0.11406073  0.57374329    -0.78600
C87         C  0.68789210  0.10040291  0.55597410     0.82100
N88         N  0.70397568  0.10243528  0.53987709    -0.78600
C89         C  0.72098803  0.11803150  0.54093627     0.82200
N90         N  0.72206128  0.13172951  0.55851188    -0.80300
Zr91       Zr  0.71378418  0.26363047  0.23316830     2.17500
O92         O  0.67811317  0.28428138  0.22312195    -0.51900
O93         O  0.69223947  0.22812163  0.22705107    -0.75100
O94         O  0.71139977  0.27469588  0.19448056    -0.81900
O95         O  0.69985604  0.27278574  0.29379625    -0.83600
O96         O  0.74762371  0.27283337  0.17970736    -0.79200
O97         O  0.68421163  0.27423226  0.26017490    -0.90900
O98         O  0.71432072  0.19826920  0.23990305    -0.76800
O99         O  0.74158440  0.23668899  0.21885295    -0.86300
O100        O  0.72393945  0.23817265  0.26237634    -0.86000
O101        O  0.74621259  0.28693924  0.22223658    -0.72800
O102        O  0.72930960  0.28711675  0.26136662    -0.84900
Zr103      Zr  0.80052094  0.25675036  0.26441688     2.26400
Zr104      Zr  0.77390497  0.25951905  0.20790256     2.06300
Zr105      Zr  0.74010714  0.26117294  0.28999961     2.10000
Zr106      Zr  0.75217259  0.21176344  0.24829428     1.78800
O107        O  0.73680358  0.29072349  0.31766325    -0.93700
O108        O  0.75871989  0.18549792  0.21815837    -0.41500
O109        O  0.76842159  0.23398714  0.27653831    -0.78100
O110        O  0.78466036  0.23329212  0.23648260    -0.96800
O111        O  0.79036615  0.28265204  0.23560641    -0.90100
O112        O  0.77283231  0.28341424  0.27933913    -0.93000
C113        C  0.69551595  0.20670878  0.23207773     1.00800
C114        C  0.68289443  0.27637842  0.28088529     1.13700
C115        C  0.72579339  0.27759012  0.17857598     1.04500
O116        O  0.77327915  0.22806380  0.18213120    -0.95100
O117        O  0.81408055  0.24695139  0.20390486    -0.90900
O118        O  0.83015312  0.24605855  0.23743920    -0.84000
C119        C  0.83103637  0.24312267  0.21681575     1.11100
O120        O  0.73591714  0.33912917  0.23780191    -0.97100
Zr121      Zr  0.76242483  0.30892033  0.25064799     1.88900
O122        O  0.82136815  0.29154163  0.27347620    -0.73800
O123        O  0.79329792  0.28598369  0.18302878    -0.53000
O124        O  0.77900686  0.33545429  0.22413180    -0.97700
O125        O  0.74841833  0.33307942  0.28032299    -0.54900
O126        O  0.79851620  0.32248224  0.26500450    -0.74300
C127        C  0.81739059  0.31338591  0.27222032     0.98100
O128        O  0.83761493  0.23882620  0.27431260    -0.63100
O129        O  0.72195982  0.23123297  0.31198701    -0.57900
O130        O  0.80088718  0.24203813  0.30186764    -0.94600
O131        O  0.76666548  0.25108788  0.31858150    -0.93000
O132        O  0.74212318  0.18647410  0.27857374    -0.93400
O133        O  0.78197559  0.18235312  0.25535625    -0.92100
C134        C  0.78742418  0.24281021  0.31866099     1.16900
H135        H  0.71052127  0.23040032  0.26815809     0.32900
H136        H  0.79571620  0.22171177  0.23161591     0.43700
H137        H  0.77885732  0.29136536  0.29166397     0.37200
H138        H  0.74175286  0.29836888  0.21153924     0.33700
H139        H  0.74699343  0.19011610  0.20728041     0.25500
H140        H  0.80757885  0.29045900  0.19052459     0.31400
H141        H  0.79190412  0.32661815  0.21720000     0.37400
H142        H  0.73642048  0.17230940  0.27177511     0.31800
H143        H  0.73431489  0.21939070  0.31431386     0.30700
H144        H  0.72617304  0.28427129  0.32878406     0.32400
H145        H  0.75974841  0.33057064  0.29207127     0.31300
H146        H  0.79281435  0.18979872  0.26530899     0.35300
H147        H  0.84267163  0.24693255  0.28742332     0.28100
H148        H  0.67119922  0.27532618  0.21134453     0.32300
H149        H  0.72096119  0.33129802  0.23606074     0.35200
H150        H  0.71944409  0.23831664  0.32636953     0.27800
H151        H  0.83399587  0.22300076  0.27930802     0.40600
H152        H  0.77781596  0.23516172  0.16809316     0.30700
H153        H  0.77368855  0.19014067  0.21159084     0.38300
H154        H  0.73413205  0.32561948  0.28568836     0.30200
H155        H  0.79884260  0.27623954  0.17087039     0.30200
H156        H  0.68296120  0.29897366  0.21628776     0.30500
C157        C  0.83872257  0.67295964  0.56317381     0.79700
N158        N  0.82116485  0.67540663  0.54872692    -0.78600
C159        C  0.82027880  0.66161635  0.53115483     0.82100
N160        N  0.83703118  0.64530807  0.52803141    -0.78600
C161        C  0.85494440  0.64286740  0.54191309     0.82200
N162        N  0.85569380  0.65658277  0.55966044    -0.80300
C163        C  0.67383653  0.62657571  0.44881910     0.79700
N164        N  0.67083342  0.64350508  0.43351330    -0.78600
C165        C  0.68695747  0.66027930  0.43099329     0.82100
N166        N  0.70598237  0.65984136  0.44372951    -0.78600
C167        C  0.70934060  0.64286612  0.45862123     0.82200
N168        N  0.69327671  0.62631996  0.46106129    -0.80300
Zr169      Zr  0.00767776  0.44783690  0.47872696     2.17500
O170        O  0.99160707  0.40964605  0.47384025    -0.51900
O171        O  0.04336868  0.42695650  0.46843577    -0.75100
O172        O  0.99203459  0.44275827  0.44224939    -0.81900
O173        O  0.00078048  0.44075532  0.54095609    -0.83600
O174        O  0.99531549  0.47669008  0.42371884    -0.79200
O175        O  0.99702793  0.42198709  0.50903570    -0.90900
O176        O  0.07044961  0.45392426  0.46131423    -0.76800
O177        O  0.03061172  0.47472986  0.45870917    -0.86300
O178        O  0.03717205  0.45968159  0.50280053    -0.86000
O179        O  0.98164992  0.47909118  0.46845667    -0.72800
O180        O  0.98802445  0.46569659  0.50877187    -0.84900
Zr181      Zr  0.01481168  0.53629467  0.50264967     2.26400
Zr182      Zr  0.00524825  0.50638690  0.44914322     2.06300
Zr183      Zr  0.01746390  0.47814423  0.53255385     2.10000
Zr184      Zr  0.05962649  0.48684352  0.48281303     1.78800
O185        O  0.99518043  0.48446445  0.56582372    -0.93700
O186        O  0.08313917  0.50299484  0.45354849    -0.41500
O187        O  0.04058321  0.50506317  0.51272461    -0.78100
O188        O  0.03523095  0.51891782  0.47253332    -0.96800
O189        O  0.98531444  0.52424805  0.47893152    -0.90100
O190        O  0.99192550  0.50959328  0.52290802    -0.93000
C191        C  0.06320026  0.43326844  0.46110429     1.00800
C192        C  0.99536709  0.42304303  0.52986733     1.13700
C193        C  0.99019449  0.45526288  0.42496322     1.04500
O194        O  0.02965759  0.50985212  0.41685027    -0.95100
O195        O  0.01209717  0.54713809  0.44116622    -0.90900
O196        O  0.01565712  0.56522918  0.47343605    -0.84000
C197        C  0.01489179  0.56527995  0.45260230     1.11100
O198        O  0.93350856  0.46770236  0.49563914    -0.97100
Zr199      Zr  0.96293120  0.49706066  0.49881696     1.88900
O200        O  0.98035830  0.55705615  0.51589006    -0.73800
O201        O  0.97007332  0.51978444  0.43109546    -0.53000
O202        O  0.93378810  0.50692041  0.47178464    -0.97700
O203        O  0.94328086  0.48816281  0.53300819    -0.54900
O204        O  0.94925332  0.53456246  0.51060482    -0.74300
C205        C  0.95844777  0.55345047  0.51636121     0.98100
O206        O  0.03594809  0.57216817  0.50564437    -0.63100
O207        O  0.04659780  0.45490983  0.55158286    -0.57900
O208        O  0.03353225  0.54107187  0.53763522    -0.94600
O209        O  0.03882957  0.50582289  0.55350728    -0.93000
O210        O  0.08703824  0.46563856  0.50565735    -0.93400
O211        O  0.09153859  0.51029585  0.49471960    -0.92100
C212        C  0.04167242  0.52775507  0.55261665     1.16900
H213        H  0.04639632  0.44659250  0.50771846     0.32900
H214        H  0.04485578  0.53012428  0.46529310     0.43700
H215        H  0.98525087  0.51658720  0.53572986     0.37200
H216        H  0.96931328  0.47385159  0.45942721     0.33700
H217        H  0.09722874  0.49295939  0.45292691     0.25500
H218        H  0.96352284  0.53206500  0.44051166     0.31400
H219        H  0.92842494  0.52280597  0.47518453     0.37400
H220        H  0.10023989  0.46164075  0.49589703     0.31800
H221        H  0.06070995  0.46435764  0.55135321     0.30700
H222        H  0.00303650  0.47469499  0.57686268     0.32400
H223        H  0.94300930  0.50272691  0.54123063     0.31300
H224        H  0.08417122  0.52210630  0.50416886     0.35300
H225        H  0.02933108  0.58014701  0.51848341     0.28100
H226        H  0.00049784  0.40272063  0.46163216     0.32300
H227        H  0.91854797  0.47549011  0.49929823     0.35200
H228        H  0.04137710  0.45487036  0.56692078     0.27800
H229        H  0.05199744  0.56764955  0.50965204     0.40600
H230        H  0.03945948  0.49563552  0.41683298     0.30700
H231        H  0.07466881  0.49940611  0.44019579     0.38300
H232        H  0.95436623  0.47798316  0.54089281     0.30200
H233        H  0.97564806  0.52806700  0.41798815     0.30200
H234        H  0.97572182  0.41227254  0.46829036     0.30500
C235        C  0.42266758  0.81689740  0.13466248     0.79700
N236        N  0.43959475  0.80075592  0.13074744    -0.78600
C237        C  0.45938573  0.80636720  0.11996133     0.82100
N238        N  0.46234348  0.82851409  0.11342170    -0.78600
C239        C  0.44553506  0.84486751  0.11701009     0.82200
N240        N  0.42550148  0.83895644  0.12742866    -0.80300
C241        C  0.57850425  0.68427104  0.08617204     0.79700
N242        N  0.56267469  0.70201167  0.08555380    -0.78600
C243        C  0.56782800  0.72295845  0.09372147     0.82100
N244        N  0.58898465  0.72605814  0.10243812    -0.78600
C245        C  0.60496181  0.70857837  0.10344293     0.82200
N246        N  0.59951904  0.68753415  0.09549634    -0.80300
C247        C  0.11904509  0.08290301  0.28344563     0.79700
N248        N  0.11583712  0.06738920  0.26737579    -0.78600
C249        C  0.10507621  0.04719873  0.27172603     0.82100
N250        N  0.09764684  0.04264094  0.29219489    -0.78600
C251        C  0.10067608  0.05780630  0.30839116     0.82200
N252        N  0.11149405  0.07797503  0.30397999    -0.80300
C253        C  0.08442896  0.91969860  0.16622250     0.79700
N254        N  0.08527469  0.93733039  0.18049804    -0.78600
C255        C  0.09652154  0.93453976  0.19948925     0.82100
N256        N  0.10690018  0.91390771  0.20415134    -0.78600
C257        C  0.10644011  0.89612956  0.18999458     0.82200
N258        N  0.09522969  0.89917487  0.17089635    -0.80300
Zr259      Zr  0.21186398  0.74183268  0.24224034     2.17500
O260        O  0.17428773  0.72597886  0.23336324    -0.51900
O261        O  0.19006161  0.77665811  0.23101626    -0.75100
O262        O  0.18620834  0.73609845  0.27419533    -0.81900
O263        O  0.24023193  0.72115980  0.18918126    -0.83600
O264        O  0.20502918  0.74663403  0.30458903    -0.79200
O265        O  0.20640378  0.72069941  0.20847181    -0.90900
O266        O  0.21240034  0.80720229  0.23867250    -0.76800
O267        O  0.22538376  0.77112978  0.26545228    -0.86300
O268        O  0.23775762  0.76478026  0.22086102    -0.86000
O269        O  0.23116073  0.72165334  0.27156175    -0.72800
O270        O  0.24312676  0.71668264  0.23059397    -0.84900
Zr271      Zr  0.30231643  0.74872143  0.26254312     2.26400
Zr272      Zr  0.24539462  0.75143899  0.29431367     2.06300
Zr273      Zr  0.26948369  0.73994255  0.21004082     2.10000
Zr274      Zr  0.25154395  0.79351764  0.24431711     1.78800
O275        O  0.29045619  0.70922884  0.19104124    -0.93700
O276        O  0.24634662  0.82247787  0.27234870    -0.41500
O277        O  0.28322388  0.76900568  0.23342098    -0.78100
O278        O  0.27144634  0.77492102  0.27353946    -0.96800
O279        O  0.27635844  0.72577623  0.28347276    -0.90100
O280        O  0.28918682  0.71974445  0.23872140    -0.93000
C281        C  0.19333237  0.79839025  0.23286465     1.00800
C282        C  0.21892446  0.71558669  0.19169879     1.13700
C283        C  0.18698337  0.73985912  0.29472771     1.04500
O284        O  0.23091968  0.78367150  0.31588937    -0.95100
O285        O  0.27577510  0.76492766  0.31777078    -0.90900
O286        O  0.30931185  0.76524791  0.29805331    -0.84000
C287        C  0.29738499  0.76950284  0.31534808     1.11100
O288        O  0.23287738  0.66797394  0.25939547    -0.97100
Zr289      Zr  0.26265959  0.69724725  0.25958995     1.88900
O290        O  0.32468406  0.71347032  0.27156276    -0.73800
O291        O  0.24662386  0.72385149  0.32434037    -0.53000
O292        O  0.25835244  0.67672695  0.29404914    -0.97700
O293        O  0.27043773  0.66823013  0.23196382    -0.54900
O294        O  0.30107980  0.68292577  0.26782746    -0.74300
C295        C  0.32072939  0.69171988  0.27179349     0.98100
O296        O  0.33877047  0.76670035  0.27182520    -0.63100
O297        O  0.26540611  0.76174464  0.17624234    -0.57900
O298        O  0.32690376  0.75832050  0.23117276    -0.94600
O299        O  0.30659833  0.75656767  0.19996997    -0.93000
O300        O  0.25445188  0.81339275  0.20941271    -0.93400
O301        O  0.27939825  0.82438612  0.24093767    -0.92100
C302        C  0.32498390  0.76100211  0.21055621     1.16900
H303        H  0.23002111  0.77147834  0.20844345     0.32900
H304        H  0.27717054  0.78743026  0.28199932     0.43700
H305        H  0.30196317  0.71055824  0.23299955     0.37200
H306        H  0.22074563  0.71179772  0.27956006     0.33700
H307        H  0.23787500  0.83541903  0.26519607     0.25500
H308        H  0.24424470  0.73332481  0.33746040     0.31400
H309        H  0.27300209  0.67912885  0.30182679     0.37400
H310        H  0.23827893  0.81614185  0.20469589     0.31800
H311        H  0.24851140  0.76333790  0.17382129     0.30700
H312        H  0.28766539  0.71249746  0.17550612     0.32400
H313        H  0.28741751  0.66838655  0.22941443     0.31300
H314        H  0.29453010  0.81690280  0.24431646     0.35300
H315        H  0.35126883  0.75686401  0.26544807     0.28100
H316        H  0.16251353  0.73718607  0.23889408     0.32300
H317        H  0.24116490  0.65303399  0.26166562     0.35200
H318        H  0.27029795  0.77753208  0.17973006     0.27800
H319        H  0.33921749  0.78141245  0.26354209     0.40600
H320        H  0.22985300  0.77747525  0.33086803     0.30700
H321        H  0.23486191  0.81581558  0.28255595     0.38300
H322        H  0.26377811  0.67491285  0.21853348     0.30200
H323        H  0.23223176  0.71494387  0.32320635     0.30200
H324        H  0.17255159  0.71204461  0.24260984     0.30500
Zr325      Zr  0.25922390  0.20720261  0.24782925     2.17500
O326        O  0.26703807  0.17079638  0.26679577    -0.51900
O327        O  0.26755422  0.18798434  0.21343421    -0.75100
O328        O  0.22535776  0.18239108  0.24940964    -0.81900
O329        O  0.32021492  0.22851980  0.25817346    -0.83600
O330        O  0.19252395  0.20483616  0.25032462    -0.79200
O331        O  0.29849539  0.19625729  0.25900466    -0.90900
O332        O  0.25883499  0.21359783  0.18658716    -0.76800
O333        O  0.23204226  0.22505187  0.22390988    -0.86300
O334        O  0.28075436  0.23384635  0.22634679    -0.86000
O335        O  0.23031699  0.22584070  0.27059496    -0.72800
O336        O  0.27489737  0.23413736  0.27279911    -0.84900
Zr337      Zr  0.23943117  0.29845340  0.24888850     2.26400
Zr338      Zr  0.20369759  0.24464355  0.24617736     2.06300
Zr339      Zr  0.29518539  0.26147830  0.25099008     2.10000
Zr340      Zr  0.25363748  0.25135702  0.20241924     1.78800
O341        O  0.31690283  0.27248104  0.28273149    -0.93700
O342        O  0.22242049  0.24716228  0.17650681    -0.41500
O343        O  0.26856866  0.27955468  0.22645787    -0.78100
O344        O  0.22473752  0.27101510  0.22353385    -0.96800
O345        O  0.21848614  0.27191248  0.27104160    -0.90100
O346        O  0.26680174  0.28094622  0.27303067    -0.93000
C347        C  0.26496118  0.19345021  0.19336605     1.00800
C348        C  0.31774975  0.20679038  0.26113818     1.13700
C349        C  0.20320043  0.18524060  0.25068797     1.04500
O350        O  0.17709697  0.23366431  0.21795446    -0.95100
O351        O  0.17895204  0.27736294  0.23580796    -0.90900
O352        O  0.20136422  0.30911565  0.23355485    -0.84000
C353        C  0.18211051  0.29866774  0.23083787     1.11100
O354        O  0.24934083  0.22120572  0.31967507    -0.97100
Zr355      Zr  0.24611028  0.25360710  0.29437576     1.88900
O356        O  0.22923681  0.31585954  0.28392973    -0.73800
O357        O  0.17388489  0.24601242  0.27458319    -0.53000
O358        O  0.21103263  0.24887830  0.31622345    -0.97700
O359        O  0.27728435  0.25743231  0.32037946    -0.54900
O360        O  0.23978355  0.29070978  0.31063722    -0.74300
C361        C  0.23241194  0.31042280  0.30392466     0.98100
O362        O  0.23601309  0.33938603  0.23951521    -0.63100
O363        O  0.32903471  0.26358568  0.22703405    -0.57900
O364        O  0.27303324  0.32247334  0.24093801    -0.94600
O365        O  0.30596704  0.30026793  0.24217732    -0.93000
O366        O  0.28839544  0.25247910  0.17964285    -0.93400
O367        O  0.25302587  0.28432095  0.17764822    -0.92100
C368        C  0.29514433  0.31949534  0.23916729     1.16900
H369        H  0.29329718  0.22621885  0.21855044     0.32900
H370        H  0.21514855  0.27805220  0.21256333     0.43700
H371        H  0.27398207  0.29242972  0.28181348     0.37200
H372        H  0.22247588  0.21458468  0.27952677     0.33700
H373        H  0.21570963  0.23195895  0.17997102     0.25500
H374        H  0.16016200  0.25338720  0.26771078     0.31400
H375        H  0.20097924  0.26233369  0.31245177     0.37400
H376        H  0.29720429  0.26567127  0.18505163     0.31800
H377        H  0.34252431  0.26340062  0.23680736     0.30700
H378        H  0.33339833  0.27021172  0.27849164     0.32400
H379        H  0.26930315  0.25990743  0.33448763     0.31300
H380        H  0.24539561  0.29689205  0.18600604     0.35300
H381        H  0.23077457  0.34014029  0.22430380     0.28100
H382        H  0.26309435  0.15855045  0.25648630     0.32300
H383        H  0.26325828  0.21237440  0.31470666     0.35200
H384        H  0.32996970  0.24854382  0.21960894     0.27800
H385        H  0.22272852  0.34545311  0.24819903     0.40600
H386        H  0.16203584  0.23164351  0.22554945     0.30700
H387        H  0.21013960  0.25844070  0.18076563     0.38300
H388        H  0.28435014  0.27246112  0.31691598     0.30200
H389        H  0.16933937  0.22983412  0.27713114     0.30200
H390        H  0.25518155  0.16986802  0.27849757     0.30500
C391        C  0.57675287  0.84484023  0.60471997     0.79700
N392        N  0.55942797  0.82963058  0.60772873    -0.78600
C393        C  0.56388811  0.80799218  0.61525246     0.82100
N394        N  0.58601803  0.80168920  0.62017564    -0.78600
C395        C  0.60365980  0.81675683  0.61760129     0.82200
N396        N  0.59893474  0.83839466  0.60967331    -0.80300
C397        C  0.45961665  0.66777946  0.62247410     0.79700
N398        N  0.47750545  0.68266124  0.62065261    -0.78600
C399        C  0.47498410  0.70484307  0.62702966     0.82100
N400        N  0.45444793  0.71211112  0.63551640    -0.78600
C401        C  0.43636064  0.69766077  0.63784241     0.82200
N402        N  0.43890472  0.67537162  0.63110995    -0.80300
Zr403      Zr  0.51889122  0.01109866  0.53433491     2.17500
O404        O  0.52314020  0.00879145  0.57361834    -0.51900
O405        O  0.55282449  0.03401715  0.54155286    -0.75100
O406        O  0.53840787  0.97540107  0.54632542    -0.81900
O407        O  0.47007159  0.05683206  0.54107882    -0.83600
O408        O  0.54981314  0.95573230  0.51625419    -0.79200
O409        O  0.49227443  0.03055171  0.55929623    -0.90900
O410        O  0.56687741  0.04797404  0.50960938    -0.76800
O411        O  0.54397526  0.00613790  0.50370517    -0.86300
O412        O  0.51516696  0.04553401  0.51303397    -0.86000
O413        O  0.50493103  0.97733929  0.51652451    -0.72800
O414        O  0.47877225  0.01428370  0.52483829    -0.84900
Zr415      Zr  0.48620576  0.00931708  0.45343526     2.26400
Zr416      Zr  0.53003362  0.97310106  0.48543988     2.06300
Zr417      Zr  0.47526082  0.04819763  0.50285960     2.10000
Zr418      Zr  0.53929687  0.03998342  0.48189327     1.78800
O419        O  0.43383200  0.05320695  0.50999641    -0.93700
O420        O  0.57735367  0.03027131  0.46657520    -0.41500
O421        O  0.49963804  0.04289667  0.47160979    -0.78100
O422        O  0.52653527  0.00695628  0.46302134    -0.96800
O423        O  0.49000003  0.97540393  0.47529201    -0.90100
O424        O  0.46116496  0.01538249  0.48412954    -0.93000
C425        C  0.56790119  0.04477232  0.53010743     1.00800
C426        C  0.47706802  0.04703124  0.55862272     1.13700
C427        C  0.54905231  0.95856900  0.53683249     1.04500
O428        O  0.57098111  0.97024914  0.47533039    -0.95100
O429        O  0.53378860  0.96097655  0.44808116    -0.90900
O430        O  0.50858695  0.98362712  0.42901913    -0.84000
C431        C  0.52466862  0.96789722  0.43024007     1.11100
O432        O  0.45622596  0.96607680  0.54184948    -0.97100
Zr433      Zr  0.46528390  0.98155095  0.50598030     1.88900
O434        O  0.45148208  0.98732715  0.44595665    -0.73800
O435        O  0.52299672  0.93190451  0.48388066    -0.53000
O436        O  0.46543720  0.93955089  0.50630599    -0.97700
O437        O  0.42753239  0.99319648  0.52086508    -0.54900
O438        O  0.43860451  0.97193930  0.47780780    -0.74300
C439        C  0.43714730  0.97548100  0.45736904     0.98100
O440        O  0.48444270  0.02066877  0.41528237    -0.63100
O441        O  0.48256837  0.08926631  0.50645961    -0.57900
O442        O  0.46817396  0.04586427  0.44170365    -0.94600
O443        O  0.46061908  0.06819422  0.47113757    -0.93000
O444        O  0.53716276  0.08194917  0.48279094    -0.93400
O445        O  0.54761331  0.05653537  0.44627536    -0.92100
C446        C  0.46061511  0.06455855  0.45066084     1.16900
H447        H  0.51958456  0.05888712  0.52111440     0.32900
H448        H  0.53644538  0.00572816  0.45035746     0.43700
H449        H  0.44529782  0.01810057  0.47978604     0.37200
H450        H  0.50551617  0.96371575  0.52562529     0.33700
H451        H  0.58711098  0.04362557  0.46984477     0.25500
H452        H  0.53864743  0.92460175  0.48301105     0.31400
H453        H  0.46585338  0.93517324  0.49084598     0.37400
H454        H  0.52128390  0.08597176  0.47790759     0.31800
H455        H  0.46733132  0.09623891  0.51050855     0.30700
H456        H  0.43218045  0.06853558  0.51682446     0.32400
H457        H  0.41873701  0.99953857  0.50841125     0.31300
H458        H  0.53781000  0.04789572  0.43624746     0.35300
H459        H  0.50074406  0.02241964  0.41038933     0.28100
H460        H  0.53998683  0.00689440  0.57621203     0.32300
H461        H  0.46876199  0.97164647  0.55115615     0.35200
H462        H  0.49203148  0.09063857  0.51963244     0.27800
H463        H  0.47878933  0.00707979  0.40749566     0.40600
H464        H  0.57699116  0.95609877  0.48260765     0.30700
H465        H  0.58345078  0.01767010  0.47597344     0.38300
H466        H  0.43067184  0.00679857  0.52985539     0.30200
H467        H  0.51709065  0.92774166  0.49850392     0.30200
H468        H  0.51634543  0.99394703  0.57822406     0.30500
C469        C  0.30044762  0.38445849  0.60296763     0.79700
N470        N  0.28683160  0.38192509  0.58543381    -0.78600
C471        C  0.29420481  0.38754217  0.56523663     0.82100
N472        N  0.31580463  0.39595290  0.56248508    -0.78600
C473        C  0.32984730  0.39897809  0.57980764     0.82200
N474        N  0.32213488  0.39312379  0.60014834    -0.80300
C475        C  0.21446622  0.36475113  0.41943088     0.79700
N476        N  0.19151730  0.36866268  0.42390226    -0.78600
C477        C  0.18425441  0.37299538  0.44454276     0.82100
N478        N  0.20011121  0.37359330  0.46055073    -0.78600
C479        C  0.22301441  0.36998432  0.45640598     0.82200
N480        N  0.23007934  0.36551321  0.43578959    -0.80300
C481        C  0.54736254  0.34330306  0.36853302     0.79700
N482        N  0.53004001  0.32772469  0.36746344    -0.78600
C483        C  0.53409344  0.30674725  0.35843552     0.82100
N484        N  0.55536560  0.30153875  0.35003022    -0.78600
C485        C  0.57267949  0.31694851  0.35081203     0.82200
N486        N  0.56871677  0.33770479  0.36027772    -0.80300
C487        C  0.44289841  0.15815136  0.35716154     0.79700
N488        N  0.45697247  0.17589993  0.36180187    -0.78600
C489        C  0.45773028  0.19485407  0.34879175     0.82100
N490        N  0.44425953  0.19599796  0.33098030    -0.78600
C491        C  0.43021627  0.17832873  0.32593850     0.82200
N492        N  0.42952886  0.15938313  0.33915465    -0.80300
C493        C  0.62137048  0.57643656  0.84332407     0.79700
N494        N  0.62919167  0.59695181  0.83564971    -0.78600
C495        C  0.63640602  0.59890206  0.81468883     0.82100
N496        N  0.63527484  0.58041767  0.80146808    -0.78600
C497        C  0.62758079  0.55989191  0.80899918     0.82200
N498        N  0.62079402  0.55793081  0.83002291    -0.80300
C499        C  0.58918534  0.45739014  0.68218556     0.79700
N500        N  0.60197156  0.43739134  0.68406868    -0.78600
C501        C  0.61747378  0.43450155  0.70050211     0.82100
N502        N  0.61983913  0.45167532  0.71509594    -0.78600
C503        C  0.60722512  0.47158610  0.71335263     0.82200
N504        N  0.59213749  0.47434111  0.69684088    -0.80300
Zr505      Zr  0.52487201  0.50337828  0.45960784     2.17500
O506        O  0.55877930  0.49596600  0.43649676    -0.51900
O507        O  0.50388404  0.51977274  0.42908349    -0.75100
O508        O  0.52118397  0.46833886  0.43830402    -0.81900
O509        O  0.55796685  0.55122162  0.48557694    -0.83600
O510        O  0.49160651  0.44799456  0.45315859    -0.79200
O511        O  0.55404636  0.53276702  0.45353882    -0.90900
O512        O  0.47051330  0.53653888  0.44152691    -0.76800
O513        O  0.48457928  0.49649805  0.46420889    -0.86300
O514        O  0.50801415  0.53723966  0.47543677    -0.86000
O515        O  0.52310047  0.47003044  0.48309136    -0.72800
O516        O  0.54425913  0.50777524  0.49352109    -0.84900
Zr517      Zr  0.48355825  0.50129373  0.53864963     2.26400
Zr518      Zr  0.48245697  0.46408353  0.48822984     2.06300
Zr519      Zr  0.52642201  0.54095237  0.50968317     2.10000
Zr520      Zr  0.46792076  0.52995474  0.48043288     1.78800
O521        O  0.56109590  0.55173610  0.52899880    -0.93700
O522        O  0.43169768  0.51621493  0.46583217    -0.41500
O523        O  0.48585806  0.53452325  0.51492903    -0.78100
O524        O  0.46426737  0.49735496  0.50442364    -0.96800
O525        O  0.50079370  0.46781152  0.52248712    -0.90100
O526        O  0.52394668  0.50855101  0.53375246    -0.93000
C527        C  0.48463011  0.53077741  0.42618479     1.00800
C528        C  0.56398455  0.54716495  0.46589603     1.13700
C529        C  0.50724527  0.45130016  0.43857378     1.04500
O530        O  0.44610863  0.45579118  0.47051477    -0.95100
O531        O  0.45394430  0.44978562  0.51337556    -0.90900
O532        O  0.45259383  0.47256913  0.54301033    -0.84000
C533        C  0.44523341  0.45568341  0.53171698     1.11100
O534        O  0.57679650  0.46189799  0.49978365    -0.97100
Zr535      Zr  0.54094915  0.47524128  0.51736424     1.88900
O536        O  0.50494683  0.48291492  0.56866609    -0.73800
O537        O  0.49328995  0.42363326  0.49362338    -0.53000
O538        O  0.54430341  0.43329687  0.51903054    -0.97700
O539        O  0.57543616  0.48998074  0.53456451    -0.54900
O540        O  0.53656586  0.46397776  0.55476412    -0.74300
C541        C  0.52316228  0.46984406  0.57051259     0.98100
O542        O  0.45390142  0.51147916  0.56567175    -0.63100
O543        O  0.51784084  0.58130733  0.50114984    -0.57900
O544        O  0.48424194  0.53842973  0.55742489    -0.94600
O545        O  0.51515711  0.55779144  0.54390069    -0.93000
O546        O  0.46731333  0.57192160  0.47837033    -0.93400
O547        O  0.43293434  0.54706093  0.49650323    -0.92100
C548        C  0.49832609  0.55539630  0.55744246     1.16900
H549        H  0.51039455  0.55066400  0.46633978     0.32900
H550        H  0.44789949  0.49491054  0.50670321     0.43700
H551        H  0.53112390  0.51197673  0.54736190     0.37200
H552        H  0.53047906  0.45676785  0.47641201     0.33700
H553        H  0.42642268  0.52852124  0.45568270     0.25500
H554        H  0.49498784  0.42176792  0.50948744     0.31400
H555        H  0.54258718  0.42814503  0.50391252     0.37400
H556        H  0.45779234  0.57575883  0.46554141     0.31800
H557        H  0.50441649  0.58554493  0.51054653     0.30700
H558        H  0.56090458  0.54245438  0.54254464     0.32400
H559        H  0.57006233  0.49619597  0.54866948     0.31300
H560        H  0.43248096  0.54076564  0.51147060     0.35300
H561        H  0.43884127  0.51096918  0.55817040     0.28100
H562        H  0.55272572  0.49442664  0.42164904     0.32300
H563        H  0.58524355  0.45281948  0.51095953     0.35200
H564        H  0.53098506  0.58973348  0.50724009     0.27800
H565        H  0.45369978  0.49850845  0.57623600     0.40600
H566        H  0.44638293  0.43883934  0.46871449     0.30700
H567        H  0.43639832  0.50322114  0.45636187     0.38300
H568        H  0.57956268  0.50376564  0.52585296     0.30200
H569        H  0.47912310  0.41507907  0.49022746     0.30200
H570        H  0.56450539  0.48032505  0.44058546     0.30500
C571        C  0.29154158  0.12647492  0.08335754     0.79700
N572        N  0.27876344  0.12641505  0.06485791    -0.78600
C573        C  0.28806057  0.11822548  0.04605072     0.82100
N574        N  0.31024581  0.11016688  0.04585949    -0.78600
C575        C  0.32324767  0.10974715  0.06402461     0.82200
N576        N  0.31382946  0.11792003  0.08287582    -0.80300
C577        C  0.20406933  0.10828262  0.90608889     0.79700
N578        N  0.18225489  0.09964869  0.90593054    -0.78600
C579        C  0.17120013  0.09435264  0.92491067     0.82100
N580        N  0.18207045  0.09778448  0.94403055    -0.78600
C581        C  0.20391225  0.10608138  0.94445764     0.82200
N582        N  0.21469668  0.11131116  0.92540690    -0.80300
C583        C  0.11165416  0.44927397  0.81439606     0.79700
N584        N  0.11439646  0.46645924  0.79951277    -0.78600
C585        C  0.13185564  0.46554823  0.78464449     0.82100
N586        N  0.14685933  0.44738550  0.78474475    -0.78600
C587        C  0.14470370  0.43012805  0.79956167     0.82200
N588        N  0.12694362  0.43096455  0.81438426    -0.80300
C589        C  0.12616340  0.56070332  0.64794724     0.79700
N590        N  0.13104144  0.54390985  0.66283066    -0.78600
C591        C  0.13851105  0.54931395  0.68278301     0.82100
N592        N  0.14122805  0.57168648  0.68786925    -0.78600
C593        C  0.13702299  0.58872001  0.67317558     0.82200
N594        N  0.12926954  0.58329920  0.65308972    -0.80300
Zr595      Zr  0.26628574  0.29044072  0.76167231     2.17500
O596        O  0.27017266  0.32626392  0.78163430    -0.51900
O597        O  0.27570970  0.31473596  0.73005892    -0.75100
O598        O  0.30581059  0.29682498  0.77406429    -0.81900
O599        O  0.20008113  0.29428803  0.77147067    -0.83600
O600        O  0.32739490  0.26523707  0.76459108    -0.79200
O601        O  0.23339464  0.31434375  0.77385173    -0.90900
O602        O  0.26636081  0.29531646  0.69971975    -0.76800
O603        O  0.28588156  0.26779793  0.73493418    -0.86300
O604        O  0.23765479  0.27964981  0.73625673    -0.86000
O605        O  0.28213285  0.25777316  0.78148459    -0.72800
O606        O  0.23803338  0.26866305  0.78184279    -0.84900
Zr607      Zr  0.24445206  0.20159927  0.74883967     2.26400
Zr608      Zr  0.30114060  0.23499999  0.75406152     2.06300
Zr609      Zr  0.20987274  0.25736454  0.75608229     2.10000
Zr610      Zr  0.25724549  0.25628283  0.71009485     1.78800
O611        O  0.17776303  0.25379664  0.78183278    -0.93700
O612        O  0.29178485  0.25347050  0.68698232    -0.41500
O613        O  0.22872238  0.23420286  0.72920271    -0.78100
O614        O  0.27291286  0.22310132  0.72836280    -0.96800
O615        O  0.27336364  0.21245836  0.77397481    -0.90100
O616        O  0.22492487  0.22457112  0.77541624    -0.93000
C617        C  0.27367686  0.31312655  0.70941234     1.00800
C618        C  0.21135257  0.31226312  0.77635227     1.13700
C619        C  0.32517456  0.28553913  0.77261855     1.04500
O620        O  0.32981189  0.23749795  0.72489424    -0.95100
O621        O  0.31173695  0.19677032  0.74186101    -0.90900
O622        O  0.27815871  0.17705409  0.73930404    -0.84000
C623        C  0.30035307  0.17864628  0.73761656     1.11100
O624        O  0.26004327  0.26027971  0.83122268    -0.97100
Zr625      Zr  0.25378988  0.23548529  0.80031955     1.88900
O626        O  0.23508353  0.17723466  0.78035439    -0.73800
O627        O  0.32859307  0.21850131  0.77991257    -0.53000
O628        O  0.28726729  0.22272091  0.82137547    -0.97700
O629        O  0.22032377  0.23886340  0.82475802    -0.54900
O630        O  0.24577662  0.19614100  0.81046960    -0.74300
C631        C  0.23802301  0.17848752  0.80090041     0.98100
O632        O  0.23411681  0.16603853  0.73083559    -0.63100
O633        O  0.18607380  0.27657274  0.72870539    -0.57900
O634        O  0.20572873  0.19716222  0.73307387    -0.94600
O635        O  0.18391549  0.22828549  0.74329566    -0.93000
O636        O  0.22605448  0.26896484  0.68627460    -0.93400
O637        O  0.25208454  0.22956644  0.68044784    -0.92100
C638        C  0.18627675  0.20847916  0.73435127     1.16900
H639        H  0.23038039  0.29307606  0.72963344     0.32900
H640        H  0.27998071  0.21363099  0.71724522     0.43700
H641        H  0.21243619  0.21643591  0.78248805     0.37200
H642        H  0.29287179  0.26224787  0.79245963     0.33700
H643        H  0.30289796  0.26423656  0.69330430     0.25500
H644        H  0.34407790  0.22257049  0.77409320     0.31400
H645        H  0.28241279  0.20865925  0.82929612     0.37400
H646        H  0.21433186  0.25676655  0.68752715     0.31800
H647        H  0.18551314  0.26549192  0.71664882     0.30700
H648        H  0.16502405  0.26336422  0.77562282     0.32400
H649        H  0.21466351  0.22299501  0.82692273     0.31300
H650        H  0.24498484  0.21588733  0.68736690     0.35300
H651        H  0.24335144  0.16554351  0.71721108     0.28100
H652        H  0.28252296  0.33495010  0.77405771     0.32300
H653        H  0.25024617  0.27419620  0.82844461     0.35200
H654        H  0.17017200  0.27671596  0.73494277     0.27800
H655        H  0.24049727  0.15332354  0.73995005     0.40600
H656        H  0.34494915  0.23521722  0.73208344     0.30700
H657        H  0.29858393  0.23796614  0.68994550     0.38300
H658        H  0.20817509  0.24669742  0.81602048     0.30200
H659        H  0.32657180  0.22798561  0.79306700     0.30200
H660        H  0.27677925  0.32177504  0.79583603     0.30500
Zr661      Zr  0.48454728  0.01168925  0.03748658     2.17500
O662        O  0.45575595  0.01444834  0.06671433    -0.51900
O663        O  0.50792544  0.02977854  0.06488225    -0.75100
O664        O  0.48194154  0.97611316  0.05922689    -0.81900
O665        O  0.45619413  0.06275583  0.00788288    -0.83600
O666        O  0.50804364  0.95012806  0.04533011    -0.79200
O667        O  0.45297540  0.04066536  0.03833913    -0.90900
O668        O  0.54247243  0.04056766  0.05050474    -0.76800
O669        O  0.52311754  0.99688031  0.03229839    -0.86300
O670        O  0.50579791  0.04133219  0.01948282    -0.86000
O671        O  0.48061667  0.97765986  0.01587520    -0.72800
O672        O  0.46558138  0.01899258  0.00370128    -0.84900
Zr673      Zr  0.52094665  0.99857997  0.95772755     2.26400
Zr674      Zr  0.51959750  0.96370382  0.00982801     2.06300
Zr675      Zr  0.48758044  0.04783947  0.98532905     2.10000
Zr676      Zr  0.54394700  0.02621492  0.01367702     1.78800
O677        O  0.45701037  0.06352572  0.96231935    -0.93700
O678        O  0.57661880  0.00722644  0.03173456    -0.41500
O679        O  0.52576138  0.03246148  0.97937313    -0.78100
O680        O  0.54145206  0.99272010  0.99130775    -0.96800
O681        O  0.49983584  0.96941239  0.97618364    -0.90100
O682        O  0.48289736  0.01446664  0.96334431    -0.93000
C683        C  0.52778050  0.03925545  0.06621906     1.00800
C684        C  0.44614035  0.05730854  0.02585771     1.13700
C685        C  0.49285716  0.95655171  0.05946232     1.04500
O686        O  0.55400049  0.94965055  0.02869796    -0.95100
O687        O  0.54694649  0.94453916  0.98557126    -0.90900
O688        O  0.54859685  0.96601811  0.95468149    -0.84000
C689        C  0.55519139  0.94883013  0.96658648     1.11100
O690        O  0.42553435  0.98062611  0.00215090    -0.97100
Zr691      Zr  0.46190895  0.98533505  0.98225879     1.88900
O692        O  0.49604098  0.98163700  0.93030068    -0.73800
O693        O  0.50362945  0.92545715  0.00565823    -0.53000
O694        O  0.45311554  0.94458138  0.98645150    -0.97700
O695        O  0.42756519  0.00386755  0.96663019    -0.54900
O696        O  0.46135407  0.97252373  0.94531646    -0.74300
C697        C  0.47554898  0.97332610  0.92926922     0.98100
O698        O  0.54669329  0.00132470  0.92612717    -0.63100
O699        O  0.50019524  0.08599457  0.99578834    -0.57900
O700        O  0.52691334  0.03385319  0.93686374    -0.94600
O701        O  0.50650798  0.06308001  0.95290071    -0.93000
O702        O  0.55175087  0.06709822  0.00902237    -0.93400
O703        O  0.58163227  0.03250675  0.99657926    -0.92100
C704        C  0.52017548  0.05504195  0.93805609     1.16900
H705        H  0.50570432  0.05534282  0.02781003     0.32900
H706        H  0.55722766  0.98753757  0.98864323     0.43700
H707        H  0.47566667  0.01870811  0.94980386     0.37200
H708        H  0.47144477  0.96603820  0.02301913     0.33700
H709        H  0.57049112  0.00248383  0.04612224     0.25500
H710        H  0.50192173  0.92360164  0.98983893     0.31400
H711        H  0.45380894  0.93819731  0.97164880     0.37400
H712        H  0.56358561  0.07039959  0.01998930     0.31800
H713        H  0.51432730  0.08886164  0.98697980     0.30700
H714        H  0.45791716  0.08045576  0.96388604     0.32400
H715        H  0.43116765  0.00583499  0.95100988     0.31300
H716        H  0.57800494  0.03860524  0.98193943     0.35300
H717        H  0.56268261  0.99885311  0.93147009     0.28100
H718        H  0.46423001  0.01086746  0.08023056     0.32300
H719        H  0.43009690  0.97848321  0.01745950     0.35200
H720        H  0.48835497  0.09682392  0.98983132     0.27800
H721        H  0.54352327  0.98762738  0.91727037     0.40600
H722        H  0.55214018  0.93274148  0.02983832     0.30700
H723        H  0.57914155  0.99255372  0.02391675     0.38300
H724        H  0.42744700  0.01974334  0.97238772     0.30200
H725        H  0.51645318  0.91466295  0.00959464     0.30200
H726        H  0.44526192  0.00133856  0.06475525     0.30500
C727        C  0.90280815  0.41705622  0.29243617     0.79700
N728        N  0.91767612  0.41788009  0.30937556    -0.78600
C729        C  0.93364584  0.43490089  0.31019229     0.82100
N730        N  0.93438647  0.45106571  0.29401739    -0.78600
C731        C  0.91976121  0.45012322  0.27703618     0.82200
N732        N  0.90394474  0.43324328  0.27642622    -0.80300
C733        C  0.87905571  0.59217501  0.18533538     0.79700
N734        N  0.89085281  0.58985460  0.16615160    -0.78600
C735        C  0.90654387  0.57218097  0.16326894     0.82100
N736        N  0.91007407  0.55667645  0.17960077    -0.78600
C737        C  0.89838626  0.55859593  0.19871811     0.82200
N738        N  0.88301487  0.57644286  0.20148495    -0.80300
C739        C  0.60546918  0.11264915  0.19625329     0.79700
N740        N  0.59589715  0.10945587  0.17647746    -0.78600
C741        C  0.58553872  0.08922267  0.17189972     0.82100
N742        N  0.58524200  0.07204793  0.18703391    -0.78600
C743        C  0.59486059  0.07488120  0.20672142     0.82200
N744        N  0.60482574  0.09525861  0.21124561    -0.80300
C745        C  0.60378342  0.92159901  0.28992554     0.79700
N746        N  0.59206168  0.92509777  0.30906814    -0.78600
C747        C  0.58022499  0.94543610  0.31252653     0.82100
N748        N  0.58082219  0.96223042  0.29701828    -0.78600
C749        C  0.59243809  0.95904062  0.27807689     0.82200
N750        N  0.60364055  0.93863110  0.27452820    -0.80300
C751        C  0.07356577  0.70062526  0.36081562     0.79700
N752        N  0.06828080  0.67957135  0.36935067    -0.78600
C753        C  0.04827591  0.67659765  0.38100741     0.82100
N754        N  0.03323101  0.69479965  0.38342522    -0.78600
C755        C  0.03809127  0.71582815  0.37465791     0.82200
N756        N  0.05841801  0.71863681  0.36362391    -0.80300
C757        C  0.88962963  0.81456643  0.37047284     0.79700
N758        N  0.90648937  0.79785224  0.37110366    -0.78600
C759        C  0.92873142  0.80297472  0.37580236     0.82100
N760        N  0.93410268  0.82515616  0.38004297    -0.78600
C761        C  0.91742105  0.84207816  0.37987819     0.82200
N762        N  0.89517334  0.83669860  0.37507379    -0.80300
C763        C  0.81734520  0.83295450  0.07712032     0.79700
N764        N  0.83720694  0.84480715  0.07317050    -0.78600
C765        C  0.83877959  0.85873641  0.05526698     0.82100
N766        N  0.82039604  0.86095595  0.04174699    -0.78600
C767        C  0.80039200  0.84985813  0.04608912     0.82200
N768        N  0.79908592  0.83578386  0.06364140    -0.80300
C769        C  0.68904010  0.84492608  0.92077321     0.79700
N770        N  0.66897999  0.85667755  0.92604348    -0.78600
C771        C  0.66703280  0.86783396  0.94540712     0.82100
N772        N  0.68526018  0.86736537  0.95916113    -0.78600
C773        C  0.70537633  0.85631693  0.95375957     0.82200
N774        N  0.70709437  0.84515110  0.93465743    -0.80300
Zr775      Zr  0.75013946  0.73397873  0.21361795     2.17500
O776        O  0.75111094  0.70362205  0.18648414    -0.51900
O777        O  0.77398807  0.75785556  0.18915461    -0.75100
O778        O  0.71926296  0.73753653  0.18672838    -0.81900
O779        O  0.79235262  0.69816093  0.24787294    -0.83600
O780        O  0.69287697  0.76453409  0.19819928    -0.79200
O781        O  0.77969092  0.70272119  0.21333370    -0.90900
O782        O  0.78477152  0.78965867  0.20726554    -0.76800
O783        O  0.73844678  0.77326422  0.21874617    -0.86300
O784        O  0.77822684  0.75047722  0.23652909    -0.86000
O785        O  0.71216985  0.73262313  0.23067209    -0.72800
O786        O  0.74867350  0.71222939  0.24705765    -0.84900
Zr787      Zr  0.72724144  0.76770527  0.29252497     2.26400
Zr788      Zr  0.70105601  0.77221764  0.23595730     2.06300
Zr789      Zr  0.77652433  0.72924778  0.26990671     2.10000
Zr790      Zr  0.76603605  0.78944219  0.24225177     1.78800
O791        O  0.78498051  0.69591686  0.29301191    -0.93700
O792        O  0.75400668  0.82546260  0.22460121    -0.41500
O793        O  0.76488729  0.76846244  0.27558835    -0.78100
O794        O  0.72846494  0.78981415  0.25922287    -0.96800
O795        O  0.69908454  0.75114820  0.26958971    -0.90100
O796        O  0.73938382  0.72839420  0.28754477    -0.93000
C797        C  0.78480364  0.77703681  0.19040791     1.00800
C798        C  0.79185745  0.69217429  0.22790408     1.13700
C799        C  0.70079741  0.75004003  0.18422434     1.04500
O800        O  0.69482495  0.80925945  0.21779020    -0.95100
O801        O  0.67964126  0.79867705  0.25919220    -0.90900
O802        O  0.69541196  0.79680478  0.29270482    -0.84000
C803        C  0.68088930  0.80530153  0.27891252     1.11100
O804        O  0.70296703  0.67869781  0.24261557    -0.97100
Zr805      Zr  0.71135977  0.71210520  0.26457635     1.88900
O806        O  0.70679481  0.74308968  0.31852483    -0.73800
O807        O  0.66077201  0.76085935  0.23298974    -0.53000
O808        O  0.66989520  0.70743475  0.25951517    -0.97700
O809        O  0.72460580  0.67522383  0.27975329    -0.54900
O810        O  0.69503662  0.71131114  0.30096499    -0.74300
C811        C  0.69643217  0.72369273  0.31796900     0.98100
O812        O  0.72771509  0.79374318  0.32333587    -0.63100
O813        O  0.81718330  0.73966482  0.26613913    -0.57900
O814        O  0.76161392  0.77068947  0.31538314    -0.94600
O815        O  0.78735153  0.74237235  0.30545921    -0.93000
O816        O  0.80689663  0.79302370  0.25093616    -0.93400
O817        O  0.77338023  0.82335331  0.26384665    -0.92100
C818        C  0.78064560  0.75896050  0.31779221     1.16900
H819        H  0.79354255  0.74949847  0.23004873     0.32900
H820        H  0.72422105  0.80573653  0.26184057     0.43700
H821        H  0.74080008  0.72007885  0.30111597     0.37200
H822        H  0.70118724  0.72527924  0.22145604     0.33700
H823        H  0.75024724  0.82116921  0.20958822     0.25500
H824        H  0.66152602  0.74524831  0.22664616     0.31400
H825        H  0.66231662  0.71809737  0.26996826     0.37400
H826        H  0.81387546  0.80103739  0.23828144     0.31800
H827        H  0.82450884  0.73445122  0.27980336     0.30700
H828        H  0.80189439  0.69644650  0.29548224     0.32400
H829        H  0.72804994  0.67834960  0.29510104     0.31300
H830        H  0.76720469  0.81944730  0.27844099     0.35300
H831        H  0.72756960  0.80957631  0.31715244     0.28100
H832        H  0.75136906  0.71153526  0.17219018     0.32300
H833        H  0.70700220  0.68337813  0.22758902     0.35200
H834        H  0.82384336  0.72921441  0.25500802     0.27800
H835        H  0.71250267  0.79215301  0.33076747     0.40600
H836        H  0.70705358  0.80986787  0.20641213     0.30700
H837        H  0.73881773  0.82957493  0.23130228     0.38300
H838        H  0.73999646  0.67230443  0.27291737     0.30200
H839        H  0.65545179  0.75828364  0.24811377     0.30200
H840        H  0.73580612  0.69620174  0.18749260     0.30500
C841        C  0.42167627  0.55883912  0.31441948     0.79700
N842        N  0.41012458  0.57829266  0.30776767    -0.78600
C843        C  0.40031652  0.57943281  0.28787889     0.82100
N844        N  0.40195734  0.56078889  0.27479257    -0.78600
C845        C  0.41317170  0.54116675  0.28126657     0.82200
N846        N  0.42300625  0.54023806  0.30115877    -0.80300
C847        C  0.38264737  0.40888730  0.18653762     0.79700
N848        N  0.38642360  0.42756163  0.19899561    -0.78600
C849        C  0.39806438  0.44588459  0.19083731     0.82100
N850        N  0.40563524  0.44558926  0.16991803    -0.78600
C851        C  0.40222696  0.42682264  0.15747250     0.82200
N852        N  0.39088434  0.40844330  0.16582597    -0.80300
Zr853      Zr  0.51184641  0.54098980  0.98258943     2.17500
O854        O  0.51569733  0.57356366  0.95752034    -0.51900
O855        O  0.52496110  0.57053447  0.00755674    -0.75100
O856        O  0.47497406  0.56257015  0.97711099    -0.81900
O857        O  0.56972623  0.51510049  0.96318500    -0.83600
O858        O  0.44708692  0.54438263  0.99666790    -0.79200
O859        O  0.54374687  0.54406938  0.95618969    -0.90900
O860        O  0.53461565  0.55438056  0.03988177    -0.76800
O861        O  0.49443917  0.53337232  0.01706636    -0.86300
O862        O  0.54114478  0.52240998  0.00404086    -0.86000
O863        O  0.47987104  0.51614878  0.97517701    -0.72800
O864        O  0.52318434  0.50599033  0.96417449    -0.84900
Zr865      Zr  0.50284315  0.45433683  0.01387170     2.26400
Zr866      Zr  0.46317965  0.50799185  0.01008466     2.06300
Zr867      Zr  0.55158827  0.48696746  0.98634414     2.10000
Zr868      Zr  0.52355538  0.51450713  0.03826799     1.78800
O869        O  0.56665369  0.46500259  0.95558186    -0.93700
O870        O  0.50057935  0.53164536  0.06755303    -0.41500
O871        O  0.53449372  0.47927300  0.02085535    -0.78100
O872        O  0.49185419  0.48945684  0.03255484    -0.96800
O873        O  0.47372840  0.47283107  0.99219626    -0.90100
O874        O  0.52036343  0.46174086  0.97932263    -0.93000
C875        C  0.53265887  0.57172696  0.02698661     1.00800
C876        C  0.56313687  0.53323789  0.95278696     1.13700
C877        C  0.45394302  0.56084669  0.98421054     1.04500
O878        O  0.44596806  0.52750219  0.04126673    -0.95100
O879        O  0.44385450  0.47983842  0.03278132    -0.90900
O880        O  0.46904174  0.44968796  0.03777337    -0.84000
C881        C  0.44989332  0.46065687  0.04183598     1.11100
O882        O  0.48722510  0.50306765  0.92444869    -0.97100
Zr883      Zr  0.49144187  0.48107317  0.95806488     1.88900
O884        O  0.49009438  0.42438489  0.98891122    -0.73800
O885        O  0.42579135  0.50025628  0.99398170    -0.53000
O886        O  0.45163691  0.48289481  0.94529755    -0.97700
O887        O  0.51265938  0.46367787  0.92775145    -0.54900
O888        O  0.47815405  0.44211940  0.95792400    -0.74300
C889        C  0.48077383  0.42429327  0.97005970     0.98100
O890        O  0.50610822  0.42038486  0.03744020    -0.63100
O891        O  0.59029845  0.49261641  0.00055489    -0.57900
O892        O  0.54040638  0.43663326  0.02416608    -0.94600
O893        O  0.56842743  0.45245149  0.00287631    -0.93000
O894        O  0.56359049  0.51194552  0.05030160    -0.93400
O895        O  0.52729477  0.49384774  0.07264023    -0.92100
C896        C  0.56152061  0.43784602  0.01721597     1.16900
H897        H  0.55449689  0.53206052  0.00540833     0.32900
H898        H  0.48569108  0.48642442  0.04687903     0.43700
H899        H  0.52599935  0.44765204  0.97270967     0.37200
H900        H  0.46870835  0.52325067  0.96555472     0.33700
H901        H  0.51195103  0.53955260  0.07662411     0.25500
H902        H  0.41492305  0.51186539  0.00030313     0.31400
H903        H  0.45118149  0.47150784  0.93347609     0.37400
H904        H  0.56861740  0.49583792  0.04735880     0.31800
H905        H  0.60068838  0.49307818  0.98767371     0.30700
H906        H  0.56736437  0.47611739  0.94332255     0.32400
H907        H  0.52115745  0.45022251  0.93396990     0.31300
H908        H  0.52461506  0.47752124  0.06904799     0.35300
H909        H  0.50407916  0.42614011  0.05241063     0.28100
H910        H  0.51014616  0.58731093  0.96559629     0.32300
H911        H  0.49711408  0.51665411  0.92629259     0.35200
H912        H  0.59010631  0.50855470  0.00613384     0.27800
H913        H  0.49216467  0.41120068  0.03474748     0.40600
H914        H  0.45435468  0.52094747  0.05387642     0.30700
H915        H  0.49156461  0.54434221  0.06059521     0.38300
H916        H  0.52490589  0.47479177  0.92394024     0.30200
H917        H  0.42750929  0.50500549  0.97860674     0.30200
H918        H  0.50401303  0.57130844  0.94615204     0.30500
Zr919      Zr  0.99225644  0.00423081  0.44782569     2.17500
O920        O  0.97856842  0.02650345  0.41655010    -0.51900
O921        O  0.97759884  0.97065291  0.42854150    -0.75100
O922        O  0.02133204  0.00839300  0.41921079    -0.81900
O923        O  0.93757229  0.01871617  0.48013899    -0.83600
O924        O  0.05769095  0.00529598  0.43285915    -0.79200
O925        O  0.95503488  0.02493614  0.44748834    -0.90900
O926        O  0.98476359  0.93873958  0.44928250    -0.76800
O927        O  0.02136863  0.97578722  0.45577166    -0.86300
O928        O  0.97481023  0.97871932  0.47340981    -0.86000
O929        O  0.02430997  0.02503676  0.46241049    -0.72800
O930        O  0.98277167  0.02738013  0.47881422    -0.84900
Zr931      Zr  0.02679802  0.99259001  0.52793111     2.26400
Zr932      Zr  0.05301364  0.99599704  0.47111996     2.06300
Zr933      Zr  0.96588712  0.00162898  0.50444278     2.10000
Zr934      Zr  0.00410163  0.95050322  0.48160738     1.78800
O935        O  0.94660560  0.03231421  0.52491358    -0.93700
O936        O  0.03091086  0.92412512  0.46306578    -0.41500
O937        O  0.99468550  0.97282479  0.51279217    -0.78100
O938        O  0.03662194  0.96935978  0.49678453    -0.96800
O939        O  0.04390691  0.01852247  0.50250616    -0.90100
O940        O  0.99763795  0.02123587  0.52034043    -0.93000
C941        C  0.97696566  0.94878429  0.43225566     1.00800
C942        C  0.93786619  0.02712318  0.46082919     1.13700
C943        C  0.04349644  0.00880541  0.41727703     1.04500
O944        O  0.07596962  0.96444291  0.45559718    -0.95100
O945        O  0.08340317  0.98440627  0.49604138    -0.90900
O946        O  0.06709124  0.97830317  0.52921530    -0.84000
C947        C  0.08442479  0.97761082  0.51588805     1.11100
O948        O  0.00331127  0.07941245  0.47165501    -0.97100
Zr949      Zr  0.01471543  0.04664359  0.49437929     1.88900
O950        O  0.03865599  0.02613124  0.54881598    -0.73800
O951        O  0.08371078  0.02402913  0.46699940    -0.53000
O952        O  0.04802405  0.06830222  0.48163198    -0.97700
O953        O  0.98726813  0.07421976  0.51061905    -0.54900
O954        O  0.03275222  0.05786818  0.52775604    -0.74300
C955        C  0.03965555  0.04800953  0.54528240     0.98100
O956        O  0.03548947  0.97150319  0.56138103    -0.63100
O957        O  0.93124321  0.97819647  0.50670888    -0.57900
O958        O  0.99731337  0.97987605  0.55390765    -0.94600
O959        O  0.96136421  0.98334708  0.53927549    -0.93000
O960        O  0.97203628  0.92774927  0.49554438    -0.93400
O961        O  0.01652049  0.91805771  0.50431246    -0.92100
C962        C  0.97521806  0.97725441  0.55441418     1.16900
H963        H  0.96084291  0.97203967  0.46800577     0.32900
H964        H  0.04770949  0.95725885  0.50031660     0.43700
H965        H  0.99284910  0.02902530  0.53345026     0.37200
H966        H  0.03025563  0.03574830  0.45172846     0.33700
H967        H  0.03053726  0.92896156  0.44764120     0.25500
H968        H  0.09563451  0.01631039  0.45777625     0.31400
H969        H  0.06125350  0.06191148  0.48999382     0.37400
H970        H  0.96480001  0.93726816  0.50711194     0.31800
H971        H  0.91860578  0.98902461  0.51114169     0.30700
H972        H  0.93277860  0.02504379  0.53148871     0.32400
H973        H  0.99682795  0.08735830  0.51495009     0.31300
H974        H  0.02463749  0.92511829  0.51654533     0.35300
H975        H  0.04143904  0.95613495  0.55683741     0.28100
H976        H  0.98107735  0.01647941  0.40381193     0.32300
H977        H  0.99707876  0.07241290  0.45843367     0.35200
H978        H  0.92759683  0.97421111  0.49159756     0.27800
H979        H  0.04896272  0.97919319  0.56771028     0.40600
H980        H  0.08934126  0.97196764  0.44845684     0.30700
H981        H  0.04647036  0.92851930  0.46797951     0.38300
H982        H  0.98222452  0.06716160  0.52450923     0.30200
H983        H  0.07709804  0.03644108  0.45767774     0.30200
H984        H  0.98957622  0.03927126  0.41456553     0.30500
C985        C  0.32237670  0.85451882  0.41228095     0.79700
N986        N  0.30668876  0.85831713  0.42848534    -0.78600
C987        C  0.30850381  0.87630635  0.44200133     0.82100
N988        N  0.32635638  0.89080427  0.43934811    -0.78600
C989        C  0.34257901  0.88742420  0.42349247     0.82200
N990        N  0.34065411  0.86910055  0.40983288    -0.80300
C991        C  0.20243772  0.85967658  0.57350490     0.79700
N992        N  0.18591052  0.87673098  0.57221501    -0.78600
C993        C  0.18484997  0.89107003  0.55467591     0.82100
N994        N  0.20075420  0.88835130  0.53843907    -0.78600
C995        C  0.21719802  0.87130478  0.53943987     0.82200
N996        N  0.21790008  0.85689713  0.55690976    -0.80300
C997        C  0.44422162  0.33258823  0.88383135     0.79700
N998        N  0.46251781  0.31806604  0.87942425    -0.78600
C999        C  0.46238281  0.30437321  0.86166680     0.82100
N1000       N  0.44373355  0.30512049  0.84846543    -0.78600
C1001       C  0.42516934  0.31915521  0.85278108     0.82200
N1002       N  0.42555430  0.33289742  0.87048058    -0.80300
C1003       C  0.57918123  0.17732364  0.83406576     0.79700
N1004       N  0.57621576  0.15920749  0.84819720    -0.78600
C1005       C  0.56164366  0.16174718  0.86568575     0.82100
N1006       N  0.55061756  0.18229938  0.86895828    -0.78600
C1007       C  0.55330761  0.20021019  0.85510689     0.82200
N1008       N  0.56744231  0.19761126  0.83760243    -0.80300
C1009       C  0.06759155  0.14992611  0.62676856     0.79700
N1010       N  0.08504065  0.14882738  0.64156880    -0.78600
C1011       C  0.08623104  0.16523700  0.65727768     0.82100
N1012       N  0.06980167  0.18235486  0.65802757    -0.78600
C1013       C  0.05261973  0.18375978  0.64330922     0.82200
N1014       N  0.05176298  0.16766693  0.62759482    -0.80300
C1015       C  0.95184751  0.32766167  0.61501554     0.79700
N1016       N  0.93488491  0.32792470  0.63076352    -0.78600
C1017       C  0.93344643  0.31013144  0.64538347     0.82100
N1018       N  0.94920294  0.29243554  0.64418324    -0.78600
C1019       C  0.96587895  0.29183693  0.62858788     0.82200
N1020       N  0.96701640  0.30939184  0.61395488    -0.80300
C1021       C  0.70653232  0.35296098  0.06968023     0.79700
N1022       N  0.68432198  0.36022342  0.06492314    -0.78600
C1023       C  0.68017228  0.37193926  0.04588835     0.82100
N1024       N  0.69816974  0.37619016  0.03210067    -0.78600
C1025       C  0.72007267  0.36916752  0.03655740     0.82200
N1026       N  0.72402174  0.35756127  0.05531151    -0.80300
C1027       C  0.84001017  0.39154524  0.91813799     0.79700
N1028       N  0.83276057  0.38280010  0.89892423    -0.78600
C1029       C  0.81050166  0.37554040  0.89711119     0.82100
N1030       N  0.79568048  0.37780078  0.91424687    -0.78600
C1031       C  0.80264229  0.38640186  0.93327189     0.82200
N1032       N  0.82492427  0.39292630  0.93529178    -0.80300
Zr1033     Zr  0.73351459  0.21264323  0.73810169     2.17500
O1034       O  0.72795737  0.17532375  0.75591188    -0.51900
O1035       O  0.72298882  0.19292283  0.70460746    -0.75100
O1036       O  0.69357168  0.20688718  0.75083752    -0.81900
O1037       O  0.79972658  0.20487600  0.74712290    -0.83600
O1038       O  0.67435632  0.24134565  0.74793146    -0.79200
O1039       O  0.76571681  0.18565032  0.74660063    -0.90900
O1040       O  0.72740009  0.21951019  0.67784816    -0.76800
O1041       O  0.71433282  0.24108456  0.71607314    -0.86300
O1042       O  0.76159513  0.22592150  0.71229640    -0.86000
O1043       O  0.72081153  0.24284324  0.76251850    -0.72800
O1044       O  0.76404685  0.22924822  0.75845200    -0.84900
Zr1045     Zr  0.76007160  0.30204654  0.73444190     2.26400
Zr1046     Zr  0.70209360  0.27134603  0.73988598     2.06300
Zr1047     Zr  0.79170943  0.24312532  0.73263900     2.10000
Zr1048     Zr  0.74254691  0.25476492  0.69095381     1.78800
O1049       O  0.82560709  0.24560894  0.75557475    -0.93700
O1050       O  0.70997155  0.26571566  0.66800172    -0.41500
O1051       O  0.77282152  0.27169441  0.71068122    -0.78100
O1052       O  0.72942429  0.28562203  0.71358671    -0.96800
O1053       O  0.73226420  0.28842762  0.76032092    -0.90100
O1054       O  0.77972124  0.27364732  0.75620017    -0.93000
C1055       C  0.72204906  0.19938693  0.68462308     1.00800
C1056       C  0.78772327  0.18666173  0.74988648     1.13700
C1057       C  0.67512809  0.21963778  0.75237565     1.04500
O1058       O  0.66939983  0.27577155  0.71552543    -0.95100
O1059       O  0.69308571  0.31157101  0.73200734    -0.90900
O1060       O  0.72749260  0.33002048  0.72993953    -0.84000
C1061       C  0.70513924  0.32974885  0.72921013     1.11100
O1062       O  0.74308454  0.23175815  0.81013298    -0.97100
Zr1063     Zr  0.75184973  0.25980486  0.78163939     1.88900
O1064       O  0.77343507  0.32022501  0.76778322    -0.73800
O1065       O  0.67986963  0.28524783  0.77108842    -0.53000
O1066       O  0.72395971  0.27346199  0.80880817    -0.97700
O1067       O  0.78707985  0.24681709  0.80003271    -0.54900
O1068       O  0.76624876  0.29514193  0.79535847    -0.74300
C1069       C  0.77336170  0.31445938  0.78796557     0.98100
O1070       O  0.77237445  0.33929445  0.72011232    -0.63100
O1071       O  0.81331538  0.22221608  0.70462831    -0.57900
O1072       O  0.79707401  0.30646189  0.71466769    -0.94600
O1073       O  0.81675548  0.27217172  0.71701869    -0.93000
O1074       O  0.77344347  0.24138325  0.66664549    -0.93400
O1075       O  0.75212288  0.28341146  0.66332713    -0.92100
C1076       C  0.81519780  0.29353590  0.71134515     1.16900
H1077       H  0.76758550  0.21337588  0.70355652     0.32900
H1078       H  0.72238691  0.29695791  0.70403581     0.43700
H1079       H  0.79316570  0.27986795  0.76303720     0.37200
H1080       H  0.71026180  0.23716664  0.77350557     0.33700
H1081       H  0.71414980  0.25954941  0.65354049     0.25500
H1082       H  0.66369237  0.28648919  0.76593939     0.31400
H1083       H  0.71823942  0.28856842  0.80321396     0.37400
H1084       H  0.76536615  0.23407609  0.65452198     0.31800
H1085       H  0.81538475  0.23351372  0.69266250     0.30700
H1086       H  0.83865746  0.23956440  0.74658621     0.32400
H1087       H  0.79873320  0.25869057  0.79672757     0.31300
H1088       H  0.75595989  0.29733599  0.67159950     0.35300
H1089       H  0.76284897  0.34237365  0.70712154     0.28100
H1090       H  0.71514516  0.16796141  0.74820158     0.32300
H1091       H  0.75019479  0.23773961  0.82341468     0.35200
H1092       H  0.82904338  0.21982092  0.71060352     0.27800
H1093       H  0.76701907  0.35085710  0.73085413     0.40600
H1094       H  0.67210467  0.26387168  0.70435922     0.30700
H1095       H  0.69709749  0.25593126  0.67309907     0.38300
H1096       H  0.79262237  0.23306727  0.79196156     0.30200
H1097       H  0.67983299  0.27210691  0.78145857     0.30200
H1098       H  0.72164546  0.17881036  0.77053632     0.30500
C1099       C  0.09363603  0.80173354  0.87576093     0.79700
N1100       N  0.08709942  0.82391804  0.88040159    -0.78600
C1101       C  0.06549635  0.82868137  0.88878107     0.82100
N1102       N  0.05064196  0.81106297  0.89246289    -0.78600
C1103       C  0.05712862  0.78893401  0.88820100     0.82200
N1104       N  0.07853655  0.78454193  0.87981779    -0.80300
C1105       C  0.94408551  0.66169786  0.88215231     0.79700
N1106       N  0.95931656  0.67855669  0.88677622    -0.78600
C1107       C  0.95329971  0.70114423  0.88397446     0.82100
N1108       N  0.93210198  0.70671957  0.87610955    -0.78600
C1109       C  0.91677305  0.69022647  0.87112204     0.82200
N1110       N  0.92278040  0.66764047  0.87432107    -0.80300
C1111       C  0.89638728  0.06425135  0.81670332     0.79700
N1112       N  0.88294327  0.08336329  0.81264989    -0.78600
C1113       C  0.87356630  0.08688605  0.79270049     0.82100
N1114       N  0.87795182  0.07132296  0.77677173    -0.78600
C1115       C  0.89134602  0.05226862  0.78072214     0.82200
N1116       N  0.90035706  0.04879510  0.80066778    -0.80300
C1117       C  0.92536024  0.93557430  0.66774194     0.79700
N1118       N  0.92280169  0.95092740  0.68406003    -0.78600
C1119       C  0.91068881  0.94553620  0.70223017     0.82100
N1120       N  0.90132960  0.92440037  0.70414902    -0.78600
C1121       C  0.90347801  0.90887721  0.68789268     0.82200
N1122       N  0.91534533  0.91452504  0.66945889    -0.80300
Zr1123     Zr  0.76062997  0.73744488  0.78223294     2.17500
O1124       O  0.76605280  0.70122384  0.80221323    -0.51900
O1125       O  0.74498177  0.75994658  0.81260605    -0.75100
O1126       O  0.79549589  0.73681106  0.80380256    -0.81900
O1127       O  0.70652349  0.71220779  0.75985474    -0.83600
O1128       O  0.82016690  0.76244898  0.78834593    -0.79200
O1129       O  0.72773257  0.71370188  0.79055189    -0.90900
O1130       O  0.72859058  0.79273990  0.79871964    -0.76800
O1131       O  0.77060393  0.77686484  0.77774239    -0.86300
O1132       O  0.72817024  0.75601217  0.76557082    -0.86000
O1133       O  0.79436204  0.73629825  0.75890201    -0.72800
O1134       O  0.75539724  0.71749755  0.74863932    -0.84900
Zr1135     Zr  0.76660188  0.77624393  0.70325712     2.26400
Zr1136     Zr  0.80378316  0.77590907  0.75427997     2.06300
Zr1137     Zr  0.72335718  0.73685431  0.73192368     2.10000
Zr1138     Zr  0.73832282  0.79504655  0.76033363     1.78800
O1139       O  0.71894250  0.70047908  0.71322007    -0.93700
O1140       O  0.75099086  0.83131355  0.77536779    -0.41500
O1141       O  0.73275191  0.77658475  0.72638460    -0.78100
O1142       O  0.77202621  0.79570698  0.73713039    -0.96800
O1143       O  0.79886271  0.75743907  0.72022029    -0.90100
O1144       O  0.75637119  0.73679889  0.70809270    -0.93000
C1145       C  0.73349061  0.77909288  0.81457975     1.00800
C1146       C  0.71054053  0.70661066  0.77968058     1.13700
C1147       C  0.81476204  0.74744873  0.80291337     1.04500
O1148       O  0.80984675  0.81299884  0.77123667    -0.95100
O1149       O  0.82226396  0.79870231  0.72647607    -0.90900
O1150       O  0.80033324  0.80051608  0.69620151    -0.84000
C1151       C  0.81834000  0.80578855  0.70711563     1.11100
O1152       O  0.80254737  0.68425474  0.74487321    -0.97100
Zr1153     Zr  0.78874999  0.71823966  0.72486907     1.88900
O1154       O  0.78345255  0.75430276  0.67316300    -0.73800
O1155       O  0.84520843  0.76669047  0.75375762    -0.53000
O1156       O  0.83085623  0.71352439  0.72375322    -0.97700
O1157       O  0.77377510  0.68297486  0.70967619    -0.54900
O1158       O  0.79960013  0.72123544  0.68672923    -0.74300
C1159       C  0.79519175  0.73533364  0.67105102     0.98100
O1160       O  0.76171011  0.81128201  0.68143983    -0.63100
O1161       O  0.68156389  0.74390843  0.73375424    -0.57900
O1162       O  0.72991894  0.77697674  0.68309567    -0.94600
O1163       O  0.70596656  0.75076738  0.69875459    -0.93000
O1164       O  0.69611505  0.79736171  0.75924324    -0.93400
O1165       O  0.72607498  0.83079719  0.74246272    -0.92100
C1166       C  0.71076059  0.76588209  0.68414098     1.16900
H1167       H  0.71438259  0.75506146  0.77455821     0.32900
H1168       H  0.77603455  0.81156652  0.73433311     0.43700
H1169       H  0.75261179  0.72973257  0.69451565     0.37200
H1170       H  0.80700269  0.72782931  0.76557684     0.33700
H1171       H  0.73956977  0.83508408  0.78697385     0.25500
H1172       H  0.84863305  0.76138970  0.73884485     0.31400
H1173       H  0.83637813  0.72613850  0.71419729     0.37400
H1174       H  0.69099247  0.79853833  0.77456199     0.31800
H1175       H  0.67460631  0.72871713  0.73120613     0.30700
H1176       H  0.70207699  0.69762712  0.71378874     0.32400
H1177       H  0.76483741  0.68804547  0.69683705     0.31300
H1178       H  0.73584749  0.83162211  0.72918434     0.35300
H1179       H  0.75902265  0.80601599  0.66648909     0.28100
H1180       H  0.76826838  0.70548785  0.81752843     0.32300
H1181       H  0.81040484  0.67423789  0.73403266     0.35200
H1182       H  0.67806921  0.74723141  0.74916344     0.27800
H1183       H  0.74674237  0.81829849  0.68625124     0.40600
H1184       H  0.81722267  0.80918771  0.78525331     0.30700
H1185       H  0.76543771  0.82726256  0.78314264     0.38300
H1186       H  0.76189884  0.67779713  0.72027644     0.30200
H1187       H  0.85292855  0.78173389  0.75477039     0.30200
H1188       H  0.78128257  0.69489439  0.79728967     0.30500
Zr1189     Zr  0.02694458  0.50505703  0.03133274     2.17500
O1190       O  0.05579977  0.50199261  0.05989593    -0.51900
O1191       O  0.00108274  0.52129338  0.05924738    -0.75100
O1192       O  0.05179149  0.53918380  0.03393617    -0.81900
O1193       O  0.01507897  0.44021115  0.03500170    -0.83600
O1194       O  0.04550766  0.56127706  0.00400657    -0.79200
O1195       O  0.03180657  0.46955496  0.05284285    -0.90900
O1196       O  0.96724623  0.53260550  0.04367435    -0.76800
O1197       O  0.00460987  0.53381678  0.01266287    -0.86300
O1198       O  0.98956644  0.48915899  0.02589553    -0.86000
O1199       O  0.04752078  0.51122874  0.99763224    -0.72800
O1200       O  0.03273666  0.47095872  0.00986622    -0.84900
Zr1201     Zr  0.99299699  0.49158957  0.95090030     2.26400
Zr1202     Zr  0.02430515  0.53934104  0.97866365     2.06300
Zr1203     Zr  0.99514627  0.45591702  0.00365517     2.10000
Zr1204     Zr  0.96752955  0.51784474  0.00711289     1.78800
O1205       O  0.00592089  0.41610375  0.99546200    -0.93700
O1206       O  0.95409260  0.55739107  0.00080606    -0.41500
O1207       O  0.97296229  0.48465011  0.98481769    -0.78100
O1208       O  0.98618106  0.52531336  0.97291187    -0.96800
O1209       O  0.03073538  0.50618257  0.95658681    -0.90100
O1210       O  0.01467367  0.46219848  0.96977054    -0.93000
C1211       C  0.98066616  0.53063696  0.06002288     1.00800
C1212       C  0.02660556  0.44819065  0.05084218     1.13700
C1213       C  0.05515341  0.55739618  0.02223313     1.04500
O1214       O  0.00768468  0.57826193  0.97973429    -0.95100
O1215       O  0.01410751  0.55309939  0.94317013    -0.90900
O1216       O  0.98917580  0.52755513  0.92919143    -0.84000
C1217       C  0.99943034  0.54710875  0.92904460     1.11100
O1218       O  0.08900660  0.47206114  0.99456332    -0.97100
Zr1219     Zr  0.05209668  0.47728923  0.97607861     1.88900
O1220       O  0.01930397  0.47449800  0.92337611    -0.73800
O1221       O  0.06011354  0.55104178  0.96064559    -0.53000
O1222       O  0.08455232  0.49692022  0.95880262    -0.97700
O1223       O  0.06287796  0.43668348  0.98101945    -0.54900
O1224       O  0.05257530  0.46257435  0.93976234    -0.74300
C1225       C  0.03946075  0.46447244  0.92324424     0.98100
O1226       O  0.96448294  0.48898967  0.92219877    -0.63100
O1227       O  0.96412412  0.44360222  0.02811264    -0.57900
O1228       O  0.96385267  0.46146148  0.94910357    -0.94600
O1229       O  0.96520793  0.44095318  0.98063239    -0.93000
O1230       O  0.93683967  0.49951811  0.02810020    -0.93400
O1231       O  0.92961971  0.51789952  0.99020659    -0.92100
C1232       C  0.95661804  0.44538431  0.96188374     1.16900
H1233       H  0.98232519  0.48505642  0.03955038     0.32900
H1234       H  0.97663145  0.53680271  0.96568551     0.43700
H1235       H  0.01545691  0.44808548  0.96159487     0.37200
H1236       H  0.06282754  0.51699181  0.00018246     0.33700
H1237       H  0.94315961  0.56064563  0.01293741     0.25500
H1238       H  0.06109330  0.56780421  0.96327739     0.31400
H1239       H  0.08098879  0.49742668  0.94316121     0.37400
H1240       H  0.93798559  0.48302942  0.02417402     0.31800
H1241       H  0.96213098  0.42706520  0.02495429     0.30700
H1242       H  0.99674745  0.40674607  0.00583837     0.32400
H1243       H  0.05225192  0.42813572  0.97169657     0.31300
H1244       H  0.93248211  0.51085010  0.97585608     0.35300
H1245       H  0.95331611  0.50193765  0.92462735     0.28100
H1246       H  0.05323352  0.51569563  0.06912845     0.32300
H1247       H  0.09907393  0.46289315  0.98463193     0.35200
H1248       H  0.97077532  0.44369606  0.04281508     0.27800
H1249       H  0.97280998  0.49295727  0.90858148     0.40600
H1250       H  0.01907785  0.58795246  0.97193004     0.30700
H1251       H  0.96771377  0.56691489  0.00380367     0.38300
H1252       H  0.05783814  0.43281481  0.99599039     0.30200
H1253       H  0.07273671  0.54400517  0.96937248     0.30200
H1254       H  0.07102155  0.50431699  0.05267700     0.30500
C1255       C  0.41624061  0.05989304  0.67488523     0.79700
N1256       N  0.40267151  0.07929218  0.67738321    -0.78600
C1257       C  0.38969613  0.08215646  0.69583899     0.82100
N1258       N  0.39072051  0.06582467  0.71172806    -0.78600
C1259       C  0.40416322  0.04662259  0.70937987     0.82200
N1260       N  0.41667604  0.04368854  0.69092922    -0.80300
C1261       C  0.40911576  0.92742330  0.82583399     0.79700
N1262       N  0.39730287  0.90762966  0.82259389    -0.78600
C1263       C  0.38910253  0.90289235  0.80255030     0.82100
N1264       N  0.39239208  0.91817566  0.78600752    -0.78600
C1265       C  0.40346251  0.93820810  0.78930303     0.82200
N1266       N  0.41190423  0.94263628  0.80918583    -0.80300
C1267       C  0.16173727  0.63022168  0.06239563     0.79700
N1268       N  0.16855222  0.63754788  0.08218576    -0.78600
C1269       C  0.18904475  0.64849000  0.08413011     0.82100
N1270       N  0.20260705  0.65182413  0.06630613    -0.78600
C1271       C  0.19605134  0.64472861  0.04650800     0.82200
N1272       N  0.17550711  0.63394888  0.04464656    -0.80300
C1273       C  0.31759862  0.65617575  0.92802791     0.79700
N1274       N  0.33699499  0.64350904  0.93356423    -0.78600
C1275       C  0.33905078  0.63460971  0.95403336     0.82100
N1276       N  0.32172913  0.63853626  0.96867676    -0.78600
C1277       C  0.30241678  0.65084297  0.96337290     0.82200
N1278       N  0.30032091  0.65955316  0.94301259    -0.80300
Zr1279     Zr  0.25609152  0.76344796  0.78604380     2.17500
O1280       O  0.25368170  0.79126270  0.81541953    -0.51900
O1281       O  0.27008750  0.73745284  0.81455289    -0.75100
O1282       O  0.21798289  0.76456410  0.80444016    -0.81900
O1283       O  0.31245999  0.78880067  0.76455963    -0.83600
O1284       O  0.19393144  0.74099713  0.78649212    -0.79200
O1285       O  0.28641740  0.79189793  0.79226377    -0.90900
O1286       O  0.28394483  0.70383229  0.80056250    -0.76800
O1287       O  0.24238967  0.72602309  0.77800755    -0.86300
O1288       O  0.28806764  0.74228684  0.77061325    -0.86000
O1289       O  0.22485832  0.76959746  0.76086093    -0.72800
O1290       O  0.26722352  0.78449381  0.75400966    -0.84900
Zr1291     Zr  0.25454744  0.73127582  0.70441568     2.26400
Zr1292     Zr  0.21214230  0.73163623  0.75214864     2.06300
Zr1293     Zr  0.29844468  0.76259078  0.73806348     2.10000
Zr1294     Zr  0.27410540  0.70504984  0.76241716     1.78800
O1295       O  0.31192624  0.79638330  0.71820638    -0.93700
O1296       O  0.25152950  0.67410070  0.77865683    -0.41500
O1297       O  0.28527419  0.72492384  0.72985194    -0.78100
O1298       O  0.24365617  0.70979037  0.73653509    -0.96800
O1299       O  0.22265611  0.75232991  0.71993319    -0.90100
O1300       O  0.26834251  0.76875055  0.71227515    -0.93000
C1301       C  0.27969561  0.71735866  0.81650227     1.00800
C1302       C  0.30534053  0.79762118  0.78242294     1.13700
C1303       C  0.19854831  0.75432330  0.80225108     1.04500
O1304       O  0.19714012  0.69614756  0.76782317    -0.95100
O1305       O  0.19590577  0.70790889  0.72424011    -0.90900
O1306       O  0.22190146  0.70670469  0.69632109    -0.84000
C1307       C  0.20274921  0.70084444  0.70553898     1.11100
O1308       O  0.22468676  0.82473255  0.74692843    -0.97100
Zr1309     Zr  0.23659016  0.78939261  0.72856087     1.88900
O1310       O  0.24331391  0.75776038  0.67501918    -0.73800
O1311       O  0.17435822  0.74859593  0.74347214    -0.53000
O1312       O  0.19558539  0.79993149  0.72599203    -0.97700
O1313       O  0.25802521  0.82318543  0.71676013    -0.54900
O1314       O  0.22961378  0.79078985  0.69026702    -0.74300
C1315       C  0.23389927  0.77801486  0.67386963     0.98100
O1316       O  0.25584572  0.70424378  0.67433211    -0.63100
O1317       O  0.33794169  0.75040802  0.74697451    -0.57900
O1318       O  0.29374901  0.72372894  0.68979768    -0.94600
O1319       O  0.31895288  0.74627836  0.70737821    -0.93000
O1320       O  0.31472217  0.69276754  0.76121250    -0.93400
O1321       O  0.28043217  0.66821302  0.74446360    -0.92100
C1322       C  0.31415928  0.73155942  0.69283921     1.16900
H1323       H  0.30102000  0.74140822  0.78037486     0.32900
H1324       H  0.23875785  0.69451625  0.73284922     0.43700
H1325       H  0.27434856  0.77642171  0.69949190     0.37200
H1326       H  0.21232900  0.77868559  0.76713676     0.33700
H1327       H  0.26313498  0.66361534  0.78549099     0.25500
H1328       H  0.16308269  0.73911621  0.75165216     0.31400
H1329       H  0.19001902  0.79179076  0.71309830     0.37400
H1330       H  0.32253334  0.70479589  0.75246098     0.31800
H1331       H  0.34772141  0.76347647  0.74241433     0.30700
H1332       H  0.32867432  0.79708836  0.72141728     0.32400
H1333       H  0.26706697  0.81816693  0.70385556     0.31300
H1334       H  0.28320450  0.67235325  0.72905770     0.35300
H1335       H  0.26270727  0.71276408  0.66191087     0.28100
H1336       H  0.24917621  0.78233361  0.82851964     0.32300
H1337       H  0.23420244  0.82485859  0.76016594     0.35200
H1338       H  0.33856794  0.75030848  0.76298983     0.27800
H1339       H  0.26749611  0.69214477  0.67816267     0.40600
H1340       H  0.18008088  0.69774200  0.76654763     0.30700
H1341       H  0.24311271  0.68126933  0.79102239     0.38300
H1342       H  0.26980082  0.82529643  0.72806834     0.30200
H1343       H  0.17390354  0.76367859  0.75084241     0.30200
H1344       H  0.24012170  0.80142903  0.81221867     0.30500
C1345       C  0.31461934  0.66579252  0.90576945    -0.05800
C1346       C  0.32574934  0.65549560  0.88783226    -0.05700
C1347       C  0.32136981  0.66356969  0.86674908    -0.23900
C1348       C  0.30604335  0.68233708  0.86321655     0.18300
C1349       C  0.29539670  0.69330408  0.88119757     0.15600
C1350       C  0.29959527  0.68489331  0.90225133    -0.18900
C1351       C  0.28050942  0.71237501  0.87783801    -0.20700
C1352       C  0.27588481  0.72032788  0.85686525    -0.13300
C1353       C  0.28581942  0.70925967  0.83871152     0.03400
C1354       C  0.30103921  0.69023441  0.84207258    -0.25400
H1355       H  0.33734123  0.64076044  0.89005412     0.08500
H1356       H  0.32982158  0.65499834  0.85319366     0.12100
H1357       H  0.29106670  0.69320657  0.91592439     0.12000
H1358       H  0.27229225  0.72107454  0.89144676     0.11800
H1359       H  0.26409191  0.73494904  0.85487208     0.12300
H1360       H  0.30898578  0.68159147  0.82829392     0.14200
C1361       C  0.21205421  0.64745466  0.02762962    -0.05800
C1362       C  0.20531218  0.64191164  0.00651208    -0.05700
C1363       C  0.22116750  0.64318908  0.98913888    -0.23900
C1364       C  0.24415993  0.64964377  0.99263724     0.18300
C1365       C  0.25096054  0.65542108  0.01378956     0.15600
C1366       C  0.23486531  0.65468059  0.03094443    -0.18900
C1367       C  0.27403064  0.66100821  0.01770222    -0.20700
C1368       C  0.29047440  0.66008512  0.00099566    -0.13300
C1369       C  0.28406951  0.65427620  0.97993442     0.03400
C1370       C  0.26072912  0.64958084  0.97564690    -0.25400
H1371       H  0.18785994  0.63633435  0.00344539     0.08500
H1372       H  0.21560420  0.63858206  0.97308405     0.12100
H1373       H  0.24047555  0.65893445  0.04708523     0.12000
H1374       H  0.27952739  0.66536689  0.03384736     0.11800
H1375       H  0.30838988  0.66363748  0.00457770     0.12300
H1376       H  0.25579689  0.64468543  0.95947058     0.14200
C1377       C  0.37734360  0.88108692  0.79808307    -0.05800
C1378       C  0.38276550  0.86957410  0.77874018    -0.05700
C1379       C  0.37065607  0.85013612  0.77284022    -0.23900
C1380       C  0.35243940  0.84215002  0.78591998     0.18300
C1381       C  0.34685575  0.85330872  0.80558667     0.15600
C1382       C  0.35968928  0.87258443  0.81179781    -0.18900
C1383       C  0.32807870  0.84538946  0.81818806    -0.20700
C1384       C  0.31465156  0.82704406  0.81104849    -0.13300
C1385       C  0.31998352  0.81608433  0.79133129     0.03400
C1386       C  0.33929054  0.82360927  0.77914980    -0.25400
H1387       H  0.39632820  0.87581488  0.76801791     0.08500
H1388       H  0.37512515  0.84173062  0.75771348     0.12100
H1389       H  0.35525828  0.88157454  0.82663295     0.12000
H1390       H  0.32346153  0.85370534  0.83331297     0.11800
H1391       H  0.29995999  0.82164945  0.82080526     0.12300
H1392       H  0.34380318  0.81551997  0.76387532     0.14200
C1393       C  0.40545848  0.95549666  0.77170984    -0.05800
C1394       C  0.40656303  0.94871430  0.74993809    -0.05700
C1395       C  0.40768480  0.96524173  0.73332218    -0.23900
C1396       C  0.40706801  0.98880866  0.73823027     0.18300
C1397       C  0.40575902  0.99575119  0.76010834     0.15600
C1398       C  0.40539318  0.97907100  0.77667583    -0.18900
C1399       C  0.40425600  0.01926507  0.76506169    -0.20700
C1400       C  0.40361481  0.03578049  0.74847874    -0.13300
C1401       C  0.40510194  0.02907564  0.72673029     0.03400
C1402       C  0.40718030  0.00555954  0.72167019    -0.25400
H1403       H  0.40666555  0.93061141  0.74578948     0.08500
H1404       H  0.40860435  0.95960948  0.71664876     0.12100
H1405       H  0.40421550  0.98445681  0.79342665     0.12000
H1406       H  0.40319057  0.02486212  0.78174081     0.11800
H1407       H  0.40217099  0.05385527  0.75264737     0.12300
H1408       H  0.40812617  0.00030886  0.70487045     0.14200
C1409       C  0.14016367  0.61721734  0.06006343    -0.05800
C1410       C  0.13243528  0.60212441  0.07647387    -0.05700
C1411       C  0.11347388  0.58790295  0.07302258    -0.23900
C1412       C  0.10174704  0.58884023  0.05322555     0.18300
C1413       C  0.10881593  0.60489863  0.03716289     0.15600
C1414       C  0.12799824  0.61874680  0.04058764    -0.18900
C1415       C  0.09697886  0.60653465  0.01762942    -0.20700
C1416       C  0.07887992  0.59180055  0.01356571    -0.13300
C1417       C  0.07229326  0.57474696  0.02879758     0.03400
C1418       C  0.08356127  0.57368526  0.04890761    -0.25400
H1419       H  0.14162067  0.60066375  0.09163439     0.08500
H1420       H  0.10827684  0.57589527  0.08565177     0.12100
H1421       H  0.13368642  0.63053551  0.02793050     0.12000
H1422       H  0.10203158  0.61891051  0.00525199     0.11800
H1423       H  0.07062325  0.59332265  0.99794725     0.12300
H1424       H  0.07863916  0.56081663  0.06087165     0.14200
C1425       C  0.83571553  0.82171941  0.69758462    -0.05800
C1426       C  0.83439329  0.82999501  0.67611806    -0.05700
C1427       C  0.84956597  0.84705564  0.66856002    -0.23900
C1428       C  0.86600118  0.85636566  0.68247735     0.18300
C1429       C  0.86815492  0.84715195  0.70365971     0.15600
C1430       C  0.85338584  0.82982703  0.71086705    -0.18900
C1431       C  0.88412060  0.85629871  0.71792424    -0.20700
C1432       C  0.89662785  0.87559437  0.71192296    -0.13300
C1433       C  0.89379243  0.88584990  0.69143695     0.03400
C1434       C  0.87927215  0.87558675  0.67626655    -0.25400
H1435       H  0.82126722  0.82375521  0.66537819     0.08500
H1436       H  0.84779931  0.85362001  0.65215786     0.12100
H1437       H  0.85496965  0.82358070  0.72740841     0.12000
H1438       H  0.88605859  0.84927871  0.73415603     0.11800
H1439       H  0.90789810  0.88317223  0.72370336     0.12300
H1440       H  0.87696426  0.88354966  0.66045528     0.14200
C1441       C  0.89604578  0.03527845  0.76362905    -0.05800
C1442       C  0.90091476  0.04252259  0.74233193    -0.05700
C1443       C  0.90579277  0.02632898  0.72622309    -0.23900
C1444       C  0.90520939  0.00266529  0.73109893     0.18300
C1445       C  0.89995665  0.99526140  0.75246267     0.15600
C1446       C  0.89586598  0.01162490  0.76867226    -0.18900
C1447       C  0.89849824  0.97163551  0.75717308    -0.20700
C1448       C  0.90198437  0.95545931  0.74081168    -0.13300
C1449       C  0.90748393  0.96262209  0.71959006     0.03400
C1450       C  0.90933148  0.98629389  0.71489760    -0.25400
H1451       H  0.90130224  0.06072578  0.73825656     0.08500
H1452       H  0.90973198  0.03229498  0.70992156     0.12100
H1453       H  0.89194640  0.00599146  0.78509723     0.12000
H1454       H  0.89435178  0.96568486  0.77343530     0.11800
H1455       H  0.90050514  0.93731038  0.74479761     0.12300
H1456       H  0.91331251  0.99202073  0.69851864     0.14200
C1457       C  0.99312948  0.56520832  0.91298100    -0.05800
C1458       C  0.01015117  0.58088353  0.90628910    -0.05700
C1459       C  0.00393651  0.60202127  0.89682956    -0.23900
C1460       C  0.98051957  0.60806547  0.89416744     0.18300
C1461       C  0.96325529  0.59185880  0.89937399     0.15600
C1462       C  0.96970418  0.57030077  0.90848105    -0.18900
C1463       C  0.93981317  0.59814865  0.89673546    -0.20700
C1464       C  0.93354647  0.62060865  0.89018635    -0.13300
C1465       C  0.95060254  0.63718520  0.88624181     0.03400
C1466       C  0.97410536  0.63050499  0.88758906    -0.25400
H1467       H  0.02828237  0.57735716  0.90965630     0.08500
H1468       H  0.01739487  0.61416036  0.89275595     0.12100
H1469       H  0.95642748  0.55850668  0.91389317     0.12000
H1470       H  0.92630105  0.58597780  0.90051215     0.11800
H1471       H  0.91531222  0.62527012  0.88912960     0.12300
H1472       H  0.98744857  0.64301780  0.88427389     0.14200
C1473       C  0.89450807  0.69717228  0.86098210    -0.05800
C1474       C  0.87833685  0.68074018  0.85477813    -0.05700
C1475       C  0.85837840  0.68755276  0.84350266    -0.23900
C1476       C  0.85444784  0.71085953  0.83802678     0.18300
C1477       C  0.87042701  0.72749120  0.84453160     0.15600
C1478       C  0.89002656  0.72061462  0.85621148    -0.18900
C1479       C  0.86709673  0.75068521  0.83852844    -0.20700
C1480       C  0.84850633  0.75729217  0.82550073    -0.13300
C1481       C  0.83260141  0.74094177  0.81878844     0.03400
C1482       C  0.83535049  0.71777209  0.82548123    -0.25400
H1483       H  0.88131232  0.66258852  0.85825965     0.08500
H1484       H  0.84634826  0.67454257  0.83858247     0.12100
H1485       H  0.90224203  0.73358400  0.86084791     0.12000
H1486       H  0.87928457  0.76360077  0.84333630     0.11800
H1487       H  0.84671799  0.77516054  0.82038603     0.12300
H1488       H  0.82337378  0.70497299  0.81995982     0.14200
C1489       C  0.17958583  0.75865527  0.81823534    -0.05800
C1490       C  0.16185653  0.74249443  0.82068999    -0.05700
C1491       C  0.14234549  0.74732046  0.83354195    -0.23900
C1492       C  0.13991922  0.76860411  0.84392487     0.18300
C1493       C  0.15773928  0.78488544  0.84204562     0.15600
C1494       C  0.17769937  0.77965932  0.82946800    -0.18900
C1495       C  0.15481012  0.80639613  0.85211103    -0.20700
C1496       C  0.13415150  0.81194950  0.86332925    -0.13300
C1497       C  0.11621796  0.79594192  0.86499820     0.03400
C1498       C  0.11955958  0.77408869  0.85554616    -0.25400
H1499       H  0.16287183  0.72618818  0.81229462     0.08500
H1500       H  0.12882241  0.73465062  0.83483384     0.12100
H1501       H  0.19112019  0.79236346  0.82752242     0.12000
H1502       H  0.16827354  0.81912246  0.85088997     0.11800
H1503       H  0.13215050  0.82881478  0.87055502     0.12300
H1504       H  0.10595594  0.76147605  0.85653847     0.14200
C1505       C  0.96976723  0.71968620  0.88853451    -0.05800
C1506       C  0.96161703  0.74257460  0.89092488    -0.05700
C1507       C  0.97708937  0.76055361  0.89332731    -0.23900
C1508       C  0.00104163  0.75605423  0.89295553     0.18300
C1509       C  0.00941159  0.73304275  0.89119213     0.15600
C1510       C  0.99373357  0.71498127  0.88931468    -0.18900
C1511       C  0.03335232  0.72857209  0.89039492    -0.20700
C1512       C  0.04883167  0.74676879  0.89020458    -0.13300
C1513       C  0.04070552  0.76979299  0.89114885     0.03400
C1514       C  0.01673549  0.77425085  0.89329028    -0.25400
H1515       H  0.94321375  0.74666437  0.89062248     0.08500
H1516       H  0.97033291  0.77805063  0.89477415     0.12100
H1517       H  0.00025140  0.69744163  0.88742403     0.12000
H1518       H  0.04009661  0.71105058  0.88916664     0.11800
H1519       H  0.06721675  0.74278967  0.88881820     0.12300
H1520       H  0.01020238  0.79188834  0.89405640     0.14200
C1521       C  0.85873826  0.10745407  0.78817041    -0.05800
C1522       C  0.86351028  0.12875289  0.79757350    -0.05700
C1523       C  0.85033687  0.14850230  0.79223430    -0.23900
C1524       C  0.83185161  0.14717201  0.77773133     0.18300
C1525       C  0.82629494  0.12560652  0.76892309     0.15600
C1526       C  0.83996883  0.10598015  0.77394383    -0.18900
C1527       C  0.80728684  0.12408895  0.75506910    -0.20700
C1528       C  0.79424840  0.14384244  0.74951704    -0.13300
C1529       C  0.80026847  0.16553121  0.75733624     0.03400
C1530       C  0.81900190  0.16703592  0.77166302    -0.25400
H1531       H  0.87787005  0.13025079  0.80857981     0.08500
H1532       H  0.85471779  0.16484089  0.79931516     0.12100
H1533       H  0.83595885  0.08952583  0.76685702     0.12000
H1534       H  0.80263933  0.10765334  0.74834846     0.11800
H1535       H  0.77990411  0.14228878  0.73850314     0.12300
H1536       H  0.82357495  0.18366797  0.77804192     0.14200
C1537       C  0.86402491  0.39960510  0.92095214    -0.05800
C1538       C  0.87607065  0.41108128  0.90423875    -0.05700
C1539       C  0.89727787  0.42165316  0.90837280    -0.23900
C1540       C  0.90686788  0.42066043  0.92922793     0.18300
C1541       C  0.89541831  0.40792737  0.94565673     0.15600
C1542       C  0.87420151  0.39760443  0.94144402    -0.18900
C1543       C  0.90490967  0.40629718  0.96634978    -0.20700
C1544       C  0.92510837  0.41788092  0.97111749    -0.13300
C1545       C  0.93634956  0.43155584  0.95536935     0.03400
C1546       C  0.92726226  0.43256503  0.93420145    -0.25400
H1547       H  0.86857952  0.41279770  0.88829035     0.08500
H1548       H  0.90585153  0.43108425  0.89543183     0.12100
H1549       H  0.86523604  0.38847375  0.95437369     0.12000
H1550       H  0.89641333  0.39643238  0.97905440     0.11800
H1551       H  0.93152159  0.41661918  0.98750611     0.12300
H1552       H  0.93573810  0.44285463  0.92179342     0.14200
C1553       C  0.80220641  0.36318771  0.87783245    -0.05800
C1554       C  0.78408700  0.34757146  0.88102953    -0.05700
C1555       C  0.77460564  0.33610773  0.86378950    -0.23900
C1556       C  0.78302143  0.33983087  0.84280730     0.18300
C1557       C  0.80146313  0.35509032  0.83897744     0.15600
C1558       C  0.81114802  0.36672708  0.85666930    -0.18900
C1559       C  0.80967395  0.35820755  0.81756210    -0.20700
C1560       C  0.80001920  0.34589111  0.80041673    -0.13300
C1561       C  0.78200702  0.33037917  0.80450705     0.03400
C1562       C  0.77336405  0.32798866  0.82571843    -0.25400
H1563       H  0.77710597  0.34406951  0.89707162     0.08500
H1564       H  0.76064820  0.32422877  0.86692114     0.12100
H1565       H  0.82514706  0.37864843  0.85397561     0.12000
H1566       H  0.82378928  0.36979423  0.81414738     0.11800
H1567       H  0.80712999  0.34786443  0.78420150     0.12300
H1568       H  0.75929718  0.31628191  0.82910792     0.14200
C1569       C  0.73906370  0.37290817  0.02041187    -0.05800
C1570       C  0.76176219  0.36461670  0.02428201    -0.05700
C1571       C  0.77925958  0.36697144  0.00851402    -0.23900
C1572       C  0.77438015  0.37744991  0.98845092     0.18300
C1573       C  0.75169202  0.38603615  0.98445336     0.15600
C1574       C  0.73433765  0.38396857  0.00047730    -0.18900
C1575       C  0.74650435  0.39588491  0.96420801    -0.20700
C1576       C  0.76338256  0.39645693  0.94780708    -0.13300
C1577       C  0.78593007  0.38786241  0.95152535     0.03400
C1578       C  0.79152702  0.37881243  0.97205635    -0.25400
H1579       H  0.76597061  0.35599243  0.03941164     0.08500
H1580       H  0.79649823  0.36016661  0.01185462     0.12100
H1581       H  0.71697286  0.39044283  0.99711890     0.12000
H1582       H  0.72920893  0.40253340  0.96084718     0.11800
H1583       H  0.75877269  0.40342890  0.93205327     0.12300
H1584       H  0.80881640  0.37181254  0.97487687     0.14200
C1585       C  0.91441109  0.30855779  0.66192218    -0.05800
C1586       C  0.91630215  0.29147733  0.67824482    -0.05700
C1587       C  0.89767547  0.28651127  0.69190566    -0.23900
C1588       C  0.87661968  0.29857343  0.68976878     0.18300
C1589       C  0.87459828  0.31682828  0.67452209     0.15600
C1590       C  0.89364353  0.32186195  0.66066795    -0.18900
C1591       C  0.85325532  0.32892498  0.67293962    -0.20700
C1592       C  0.83397165  0.32216941  0.68552655    -0.13300
C1593       C  0.83572338  0.30316316  0.69983842     0.03400
C1594       C  0.85737442  0.29196095  0.70221135    -0.25400
H1595       H  0.93206309  0.28120351  0.68005353     0.08500
H1596       H  0.89954735  0.27266616  0.70372857     0.12100
H1597       H  0.89189270  0.33519968  0.64833988     0.12000
H1598       H  0.85129338  0.34315391  0.66155534     0.11800
H1599       H  0.81752568  0.33122230  0.68345942     0.12300
H1600       H  0.85916520  0.27752744  0.71342462     0.14200
C1601       C  0.98238644  0.27201715  0.62756086    -0.05800
C1602       C  0.99029986  0.26358462  0.60749916    -0.05700
C1603       C  0.00503663  0.24413320  0.60650055    -0.23900
C1604       C  0.01252855  0.23309188  0.62558703     0.18300
C1605       C  0.00517149  0.24188915  0.64587405     0.15600
C1606       C  0.98988557  0.26103939  0.64672155    -0.18900
C1607       C  0.01334065  0.23146785  0.66497776    -0.20700
C1608       C  0.02869753  0.21254563  0.66402387    -0.13300
C1609       C  0.03574771  0.20332301  0.64399185     0.03400
C1610       C  0.02744332  0.21359459  0.62477169    -0.25400
H1611       H  0.98463777  0.27173849  0.59255722     0.08500
H1612       H  0.01061257  0.23776155  0.59080534     0.12100
H1613       H  0.98405441  0.26760179  0.66228913     0.12000
H1614       H  0.00803346  0.23808706  0.68066083     0.11800
H1615       H  0.03495999  0.20495674  0.67901069     0.12300
H1616       H  0.03312100  0.20684111  0.60923517     0.14200
C1617       C  0.65350090  0.20940594  0.76120107    -0.05800
C1618       C  0.63228071  0.22135835  0.75835749    -0.05700
C1619       C  0.61255026  0.21509624  0.77007835    -0.23900
C1620       C  0.61365307  0.19691479  0.78513904     0.18300
C1621       C  0.63431347  0.18360666  0.78716326     0.15600
C1622       C  0.65411588  0.18971182  0.77486921    -0.18900
C1623       C  0.63514240  0.16552845  0.80254034    -0.20700
C1624       C  0.61643580  0.16207167  0.81696170    -0.13300
C1625       C  0.59656123  0.17650672  0.81605478     0.03400
C1626       C  0.59490432  0.19301472  0.79925753    -0.25400
H1627       H  0.63115833  0.23632527  0.74774649     0.08500
H1628       H  0.59674123  0.22531111  0.76821213     0.12100
H1629       H  0.67032924  0.18028772  0.77722064     0.12000
H1630       H  0.65070907  0.15491709  0.80421744     0.11800
H1631       H  0.61813270  0.14911321  0.82963033     0.12300
H1632       H  0.57953216  0.20401947  0.79807738     0.14200
C1633       C  0.48193092  0.28824172  0.85675009    -0.05800
C1634       C  0.48665223  0.28194006  0.83518412    -0.05700
C1635       C  0.50339228  0.26495915  0.83034355    -0.23900
C1636       C  0.51535944  0.25353454  0.84703142     0.18300
C1637       C  0.51118325  0.26013302  0.86877413     0.15600
C1638       C  0.49481898  0.27775164  0.87346584    -0.18900
C1639       C  0.52261440  0.24822581  0.88551775    -0.20700
C1640       C  0.53699945  0.22920931  0.88086980    -0.13300
C1641       C  0.54071078  0.22212012  0.85938553     0.03400
C1642       C  0.53051257  0.23487051  0.84243616    -0.25400
H1643       H  0.47709119  0.28994780  0.82201736     0.08500
H1644       H  0.50637483  0.26020153  0.81359820     0.12100
H1645       H  0.49118812  0.28235368  0.89016097     0.12000
H1646       H  0.51973100  0.25304747  0.90225949     0.11800
H1647       H  0.54490771  0.21969742  0.89414796     0.12300
H1648       H  0.53317842  0.22937055  0.82584216     0.14200
C1649       C  0.20415650  0.84499838  0.59324694    -0.05800
C1650       C  0.19288206  0.85210950  0.61241804    -0.05700
C1651       C  0.19547867  0.83946984  0.63156532    -0.23900
C1652       C  0.20938370  0.81941518  0.63195863     0.18300
C1653       C  0.22030813  0.81153808  0.61274916     0.15600
C1654       C  0.21765943  0.82442020  0.59345127    -0.18900
C1655       C  0.23410204  0.79127046  0.61340567    -0.20700
C1656       C  0.23786520  0.77959901  0.63311499    -0.13300
C1657       C  0.22788944  0.78804690  0.65242870     0.03400
C1658       C  0.21307826  0.80759318  0.65149255    -0.25400
H1659       H  0.18246532  0.86785074  0.61280561     0.08500
H1660       H  0.18697104  0.84566792  0.64619773     0.12100
H1661       H  0.22634005  0.81862473  0.57875683     0.12000
H1662       H  0.24245683  0.78480218  0.59880981     0.11800
H1663       H  0.24921971  0.76449633  0.63335862     0.12300
H1664       H  0.20488133  0.81411875  0.66616099     0.14200
C1665       C  0.29167760  0.87947299  0.45992245    -0.05800
C1666       C  0.28688709  0.90149770  0.46831533    -0.05700
C1667       C  0.27102892  0.90435653  0.48542128    -0.23900
C1668       C  0.26010097  0.88516070  0.49465634     0.18300
C1669       C  0.26519139  0.86288451  0.48655822     0.15600
C1670       C  0.28064876  0.86024313  0.46904993    -0.18900
C1671       C  0.25490371  0.84358600  0.49624349    -0.20700
C1672       C  0.23964321  0.84632588  0.51380407    -0.13300
C1673       C  0.23402343  0.86841829  0.52154896     0.03400
C1674       C  0.24425718  0.88780832  0.51190670    -0.25400
H1675       H  0.29522092  0.91653290  0.46147827     0.08500
H1676       H  0.26742907  0.92153124  0.49151274     0.12100
H1677       H  0.28450215  0.84314401  0.46285286     0.12000
H1678       H  0.25871549  0.82639413  0.49028930     0.11800
H1679       H  0.23180127  0.83123041  0.52104903     0.12300
H1680       H  0.24012498  0.90487161  0.51805414     0.14200
C1681       C  0.04898739  0.06330965  0.56236158    -0.05800
C1682       C  0.05756748  0.05453598  0.58213970    -0.05700
C1683       C  0.06490187  0.06951711  0.59839068    -0.23900
C1684       C  0.06359114  0.09359437  0.59529353     0.18300
C1685       C  0.05569855  0.10242075  0.57521239     0.15600
C1686       C  0.04874065  0.08737562  0.55898567    -0.18900
C1687       C  0.05401183  0.12628259  0.57181811    -0.20700
C1688       C  0.05886340  0.14137817  0.58848412    -0.13300
C1689       C  0.06597529  0.13309695  0.60885865     0.03400
C1690       C  0.06906644  0.10906591  0.61202473    -0.25400
H1691       H  0.05828558  0.03611623  0.58519603     0.08500
H1692       H  0.07105018  0.06228006  0.61356605     0.12100
H1693       H  0.04240277  0.09462300  0.54387012     0.12000
H1694       H  0.04814979  0.13331279  0.55645348     0.11800
H1695       H  0.05656037  0.15973200  0.58555626     0.12300
H1696       H  0.07441359  0.10245204  0.62770744     0.14200
C1697       C  0.16594353  0.90878421  0.55270644    -0.05800
C1698       C  0.14753339  0.90975405  0.56788704    -0.05700
C1699       C  0.12864719  0.92497808  0.56484915    -0.23900
C1700       C  0.12776461  0.93952215  0.54654719     0.18300
C1701       C  0.14665406  0.93940051  0.53173922     0.15600
C1702       C  0.16555842  0.92415974  0.53491962    -0.18900
C1703       C  0.14599427  0.95393167  0.51350473    -0.20700
C1704       C  0.12626275  0.96744009  0.50922022    -0.13300
C1705       C  0.10669406  0.96677347  0.52306594     0.03400
C1706       C  0.10795046  0.95338055  0.54224462    -0.25400
H1707       H  0.14737811  0.89828934  0.58184361     0.08500
H1708       H  0.11444552  0.92491296  0.57650695     0.12100
H1709       H  0.17965038  0.92385179  0.52313251     0.12000
H1710       H  0.16043266  0.95424599  0.50210598     0.11800
H1711       H  0.12602963  0.97774928  0.49449188     0.12300
H1712       H  0.09310458  0.95269205  0.55316084     0.14200
C1713       C  0.93920492  0.94219803  0.64861944    -0.05800
C1714       C  0.95762274  0.95743406  0.65108059    -0.05700
C1715       C  0.96940045  0.96612978  0.63306378    -0.23900
C1716       C  0.96254452  0.96019105  0.61225840     0.18300
C1717       C  0.94427105  0.94453775  0.60958951     0.15600
C1718       C  0.93306329  0.93517762  0.62785239    -0.18900
C1719       C  0.93684310  0.93937363  0.58871636    -0.20700
C1720       C  0.94690405  0.95020146  0.57074331    -0.13300
C1721       C  0.96499470  0.96575914  0.57337087     0.03400
C1722       C  0.97310222  0.97032434  0.59410530    -0.25400
H1723       H  0.96269541  0.96292828  0.66702368     0.08500
H1724       H  0.98332435  0.97809865  0.63539037     0.12100
H1725       H  0.91872689  0.92359767  0.62588974     0.12000
H1726       H  0.92289193  0.92745538  0.58633151     0.11800
H1727       H  0.94066133  0.94632679  0.55473339     0.12300
H1728       H  0.98697398  0.98244750  0.59612310     0.14200
C1729       C  0.35880759  0.61930284  0.96067204    -0.05800
C1730       C  0.35445867  0.60193013  0.97619359    -0.05700
C1731       C  0.37226701  0.58768132  0.98394825    -0.23900
C1732       C  0.39504122  0.59046426  0.97651095     0.18300
C1733       C  0.39998942  0.60780568  0.96096321     0.15600
C1734       C  0.38173812  0.62211665  0.95293839    -0.18900
C1735       C  0.42308159  0.61035740  0.95384865    -0.20700
C1736       C  0.44082628  0.59559201  0.96169790    -0.13300
C1737       C  0.43588033  0.57801918  0.97691290     0.03400
C1738       C  0.41282722  0.57589307  0.98433906    -0.25400
H1739       H  0.33705089  0.59923413  0.98238348     0.08500
H1740       H  0.36818308  0.57444419  0.99584037     0.12100
H1741       H  0.38539754  0.63558396  0.94115655     0.12000
H1742       H  0.42738863  0.62359071  0.94203819     0.11800
H1743       H  0.45834402  0.59770194  0.95558164     0.12300
H1744       H  0.40849870  0.56254794  0.99604876     0.14200
C1745       C  0.65656704  0.37937401  0.03854750    -0.05800
C1746       C  0.65300821  0.38110291  0.01603870    -0.05700
C1747       C  0.63303366  0.39142317  0.00765585    -0.23900
C1748       C  0.61583513  0.40027617  0.02151600     0.18300
C1749       C  0.61817900  0.39756399  0.04420593     0.15600
C1750       C  0.63862089  0.38699533  0.05269670    -0.18900
C1751       C  0.60038295  0.40631533  0.05780195    -0.20700
C1752       C  0.58115491  0.41832793  0.04902017    -0.13300
C1753       C  0.57951365  0.42205760  0.02652722     0.03400
C1754       C  0.59675614  0.41253606  0.01291035    -0.25400
H1755       H  0.66617068  0.37504180  0.00466662     0.08500
H1756       H  0.63136793  0.39306801  0.99023771     0.12100
H1757       H  0.64101703  0.38580122  0.07005465     0.12000
H1758       H  0.60162006  0.40441426  0.07522495     0.11800
H1759       H  0.56813148  0.42565421  0.05986114     0.12300
H1760       H  0.59560241  0.41521844  0.99553800     0.14200
C1761       C  0.47335388  0.40236194  0.96059548    -0.05800
C1762       C  0.48784905  0.38265747  0.96145109    -0.05700
C1763       C  0.48403636  0.36403715  0.94772473    -0.23900
C1764       C  0.46558182  0.36483147  0.93305340     0.18300
C1765       C  0.44989297  0.38385316  0.93335175     0.15600
C1766       C  0.45383504  0.40241619  0.94713438    -0.18900
C1767       C  0.43126746  0.38462489  0.91898677    -0.20700
C1768       C  0.42891744  0.36738194  0.90359065    -0.13300
C1769       C  0.44520345  0.34904076  0.90213578     0.03400
C1770       C  0.46315997  0.34754139  0.91743685    -0.25400
H1771       H  0.50305912  0.38234484  0.97157419     0.08500
H1772       H  0.49613619  0.34950138  0.94788281     0.12100
H1773       H  0.44249504  0.41755577  0.94645666     0.12000
H1774       H  0.41894121  0.39898080  0.91916305     0.11800
H1775       H  0.41478663  0.36895934  0.89225091     0.12300
H1776       H  0.47570378  0.33338791  0.91675754     0.14200
C1777       C  0.41087241  0.42655000  0.13507923    -0.05800
C1778       C  0.43014588  0.41267904  0.12945373    -0.05700
C1779       C  0.44043988  0.41478418  0.10892214    -0.23900
C1780       C  0.43138959  0.43066844  0.09376855     0.18300
C1781       C  0.41104075  0.44358170  0.09897361     0.15600
C1782       C  0.40097103  0.44151567  0.11966852    -0.18900
C1783       C  0.40178700  0.45920151  0.08379220    -0.20700
C1784       C  0.41356189  0.46339095  0.06431520    -0.13300
C1785       C  0.43479788  0.45200317  0.05962898     0.03400
C1786       C  0.44304784  0.43483154  0.07405511    -0.25400
H1787       H  0.43782199  0.40099107  0.14127681     0.08500
H1788       H  0.45590650  0.40460328  0.10517182     0.12100
H1789       H  0.38593965  0.45207897  0.12407064     0.12000
H1790       H  0.38600318  0.46895451  0.08738866     0.11800
H1791       H  0.40660595  0.47648682  0.05343003     0.12300
H1792       H  0.45933375  0.42582705  0.07070008     0.14200
C1793       C  0.40235765  0.46592955  0.20465207    -0.05800
C1794       C  0.40352329  0.48816925  0.19554645    -0.05700
C1795       C  0.40661553  0.50727711  0.20871845    -0.23900
C1796       C  0.40891909  0.50440030  0.23117974     0.18300
C1797       C  0.40850393  0.48201138  0.24042345     0.15600
C1798       C  0.40504718  0.46294081  0.22712107    -0.18900
C1799       C  0.41121380  0.47914036  0.26285040    -0.20700
C1800       C  0.41367765  0.49834243  0.27608882    -0.13300
C1801       C  0.41323148  0.52072257  0.26713849     0.03400
C1802       C  0.41118109  0.52357401  0.24458789    -0.25400
H1803       H  0.40147264  0.49083780  0.17827962     0.08500
H1804       H  0.40697305  0.52431956  0.20136779     0.12100
H1805       H  0.40448873  0.44578068  0.23423307     0.12000
H1806       H  0.41103857  0.46208769  0.27019188     0.11800
H1807       H  0.41509724  0.49573285  0.29342132     0.12300
H1808       H  0.41103096  0.54076255  0.23749662     0.14200
C1809       C  0.69193872  0.83205953  0.90011746    -0.05800
C1810       C  0.67695770  0.83596471  0.88262907    -0.05700
C1811       C  0.68134225  0.82534621  0.86263506    -0.23900
C1812       C  0.70068948  0.81048731  0.85980658     0.18300
C1813       C  0.71512798  0.80545492  0.87759803     0.15600
C1814       C  0.71071178  0.81626348  0.89752854    -0.18900
C1815       C  0.73413703  0.79016772  0.87500684    -0.20700
C1816       C  0.73939672  0.78068723  0.85473104    -0.13300
C1817       C  0.72595326  0.78655089  0.83658771     0.03400
C1818       C  0.70626244  0.80111778  0.83938950    -0.25400
H1819       H  0.66227667  0.84779601  0.88417788     0.08500
H1820       H  0.66987890  0.82915740  0.84923961     0.12100
H1821       H  0.72224761  0.81265113  0.91092578     0.12000
H1822       H  0.74527805  0.78596851  0.88855295     0.11800
H1823       H  0.75460853  0.76955528  0.85304284     0.12300
H1824       H  0.69557001  0.80554743  0.82557926     0.14200
C1825       C  0.79756139  0.78614447  0.17114902    -0.05800
C1826       C  0.81262965  0.80480667  0.17346126    -0.05700
C1827       C  0.82189692  0.81614485  0.15535495    -0.23900
C1828       C  0.81606469  0.80931143  0.13448882     0.18300
C1829       C  0.80192456  0.78985853  0.13191490     0.15600
C1830       C  0.79308501  0.77817050  0.15022991    -0.18900
C1831       C  0.79565349  0.78330192  0.11107214    -0.20700
C1832       C  0.80185753  0.79681366  0.09316003    -0.13300
C1833       C  0.81493640  0.81681082  0.09564564     0.03400
C1834       C  0.82290071  0.82242700  0.11626340    -0.25400
H1835       H  0.81668947  0.81121993  0.18935403     0.08500
H1836       H  0.83279525  0.83089632  0.15770180     0.12100
H1837       H  0.78152861  0.76387126  0.14813844     0.12000
H1838       H  0.78499272  0.76838177  0.10871146     0.11800
H1839       H  0.79574926  0.79204341  0.07733241     0.12300
H1840       H  0.83285728  0.83789857  0.11830926     0.14200
C1841       C  0.72542801  0.85666654  0.96829061    -0.05800
C1842       C  0.74801735  0.85676330  0.95953336    -0.05700
C1843       C  0.76721901  0.85665279  0.97306790    -0.23900
C1844       C  0.76414693  0.85591054  0.99560607     0.18300
C1845       C  0.74144515  0.85573379  0.00459017     0.15600
C1846       C  0.72221080  0.85651793  0.99087227    -0.18900
C1847       C  0.73840502  0.85424794  0.02711439    -0.20700
C1848       C  0.75765893  0.85243977  0.04057122    -0.13300
C1849       C  0.78024425  0.85266631  0.03178151     0.03400
C1850       C  0.78339487  0.85479491  0.00928380    -0.25400
H1851       H  0.75081688  0.85708472  0.94215090     0.08500
H1852       H  0.78446704  0.85677615  0.96590294     0.12100
H1853       H  0.70480446  0.85626035  0.99771664     0.12000
H1854       H  0.72116338  0.85406710  0.03429203     0.11800
H1855       H  0.75491598  0.85094910  0.05791548     0.12300
H1856       H  0.80079302  0.85473755  0.00240619     0.14200
C1857       C  0.92322967  0.86555948  0.38703254    -0.05800
C1858       C  0.90729294  0.87844086  0.39962516    -0.05700
C1859       C  0.91393777  0.89886723  0.40948812    -0.23900
C1860       C  0.93656381  0.90695956  0.40667359     0.18300
C1861       C  0.95230583  0.89484454  0.39296328     0.15600
C1862       C  0.94557657  0.87419561  0.38332200    -0.18900
C1863       C  0.97490469  0.90294633  0.39004275    -0.20700
C1864       C  0.98227147  0.92202609  0.40158406    -0.13300
C1865       C  0.96715380  0.93345003  0.41604611     0.03400
C1866       C  0.94412191  0.92619461  0.41819700    -0.25400
H1867       H  0.89003733  0.87207719  0.40279776     0.08500
H1868       H  0.90160277  0.90793201  0.41987256     0.12100
H1869       H  0.95795902  0.86443954  0.37352411     0.12000
H1870       H  0.98719356  0.89391999  0.37958071     0.11800
H1871       H  0.00021447  0.92708995  0.40016432     0.12300
H1872       H  0.93258175  0.93463472  0.42977763     0.14200
C1873       C  0.86562402  0.80847582  0.36444062    -0.05800
C1874       C  0.84961173  0.82546880  0.35735128    -0.05700
C1875       C  0.82795688  0.81928691  0.34940905    -0.23900
C1876       C  0.82196659  0.79598562  0.34827804     0.18300
C1877       C  0.83744748  0.77888143  0.35641315     0.15600
C1878       C  0.85900636  0.78522860  0.36455347    -0.18900
C1879       C  0.83173710  0.75556438  0.35508148    -0.20700
C1880       C  0.81195907  0.74912414  0.34400344    -0.13300
C1881       C  0.79722044  0.76588358  0.33453360     0.03400
C1882       C  0.80161709  0.78937650  0.33779402    -0.25400
H1883       H  0.85414814  0.84349791  0.35717229     0.08500
H1884       H  0.81629181  0.83267053  0.34334559     0.12100
H1885       H  0.87099713  0.77190699  0.37020358     0.12000
H1886       H  0.84327797  0.74223869  0.36145861     0.11800
H1887       H  0.80883058  0.73094500  0.34180036     0.12300
H1888       H  0.79044966  0.80242544  0.33040680     0.14200
C1889       C  0.94669234  0.78436455  0.37707259    -0.05800
C1890       C  0.94022080  0.76151886  0.38144093    -0.05700
C1891       C  0.95695056  0.74382248  0.38285514    -0.23900
C1892       C  0.98047873  0.74853040  0.37953462     0.18300
C1893       C  0.98723160  0.77138353  0.37494957     0.15600
C1894       C  0.97033989  0.78920818  0.37403271    -0.18900
C1895       C  0.01072108  0.77591758  0.37102483    -0.20700
C1896       C  0.02728802  0.75794093  0.37128443    -0.13300
C1897       C  0.02076710  0.73511865  0.37583338     0.03400
C1898       C  0.99727622  0.73065929  0.38026786    -0.25400
H1899       H  0.92216701  0.75733754  0.38401239     0.08500
H1900       H  0.95144930  0.72639901  0.38633091     0.12100
H1901       H  0.97554297  0.80672558  0.37050640     0.12000
H1902       H  0.01623715  0.79330501  0.36740519     0.11800
H1903       H  0.04523281  0.76190669  0.36780589     0.12300
H1904       H  0.99190103  0.71315366  0.38357322     0.14200
C1905       C  0.61661807  0.89956035  0.28525577    -0.05800
C1906       C  0.62171424  0.89395389  0.26355801    -0.05700
C1907       C  0.63434331  0.87399624  0.25834189    -0.23900
C1908       C  0.64256648  0.85920366  0.27468610     0.18300
C1909       C  0.63789047  0.86445010  0.29662385     0.15600
C1910       C  0.62463225  0.88450653  0.30181918    -0.18900
C1911       C  0.64699058  0.84973090  0.31282858    -0.20700
C1912       C  0.66077261  0.83031071  0.30729476    -0.13300
C1913       C  0.66531782  0.82496157  0.28543644     0.03400
C1914       C  0.65582282  0.83949806  0.26928989    -0.25400
H1915       H  0.61585109  0.90504713  0.25042171     0.08500
H1916       H  0.63792478  0.87027992  0.24144596     0.12100
H1917       H  0.62111898  0.88868039  0.31862499     0.12000
H1918       H  0.64376395  0.85343268  0.32977479     0.11800
H1919       H  0.66790415  0.81951914  0.32009714     0.12300
H1920       H  0.65937425  0.83593331  0.25235259     0.14200
C1921       C  0.59510453  0.05564912  0.22276689    -0.05800
C1922       C  0.59733316  0.06007370  0.24497299    -0.05700
C1923       C  0.59711004  0.04201078  0.26016149    -0.23900
C1924       C  0.59506454  0.01913018  0.25340389     0.18300
C1925       C  0.59352931  0.01436506  0.23107727     0.15600
C1926       C  0.59327401  0.03265412  0.21593916    -0.18900
C1927       C  0.59230922  0.99137857  0.22430796    -0.20700
C1928       C  0.59240224  0.97330279  0.23954324    -0.13300
C1929       C  0.59319547  0.97794783  0.26180062     0.03400
C1930       C  0.59453868  0.00094453  0.26860180    -0.25400
H1931       H  0.59886380  0.07757754  0.25065014     0.08500
H1932       H  0.59853139  0.04594336  0.27720652     0.12100
H1933       H  0.59192900  0.02895137  0.19883174     0.12000
H1934       H  0.59128355  0.98738483  0.20724540     0.11800
H1935       H  0.59134213  0.95571123  0.23397298     0.12300
H1936       H  0.59547851  0.00464798  0.28574356     0.14200
C1937       C  0.91923755  0.56903702  0.14236966    -0.05800
C1938       C  0.91035300  0.57836828  0.12301154    -0.05700
C1939       C  0.92122185  0.57355258  0.10311035    -0.23900
C1940       C  0.94130468  0.55947340  0.10220224     0.18300
C1941       C  0.95091930  0.55073024  0.12161464     0.15600
C1942       C  0.93982837  0.55551259  0.14152209    -0.18900
C1943       C  0.97115340  0.53688637  0.12073579    -0.20700
C1944       C  0.98134923  0.53111382  0.10076618    -0.13300
C1945       C  0.97145720  0.53896625  0.08124910     0.03400
C1946       C  0.95158611  0.55353276  0.08219379    -0.25400
H1947       H  0.89455976  0.58879484  0.12317048     0.08500
H1948       H  0.91366513  0.58049902  0.08838253     0.12100
H1949       H  0.94706423  0.54839646  0.15633499     0.12000
H1950       H  0.97883244  0.53011952  0.13548074     0.11800
H1951       H  0.99655594  0.51984398  0.10060023     0.12300
H1952       H  0.94380819  0.55989473  0.06733650     0.14200
C1953       C  0.80607508  0.67138513  0.22191375    -0.05800
C1954       C  0.81076506  0.65455891  0.23794723    -0.05700
C1955       C  0.82506239  0.63544733  0.23356320    -0.23900
C1956       C  0.83540227  0.63278762  0.21309097     0.18300
C1957       C  0.83069309  0.64923957  0.19658407     0.15600
C1958       C  0.81575401  0.66834486  0.20098782    -0.18900
C1959       C  0.84148004  0.64647185  0.17620440    -0.20700
C1960       C  0.85704263  0.62793422  0.17242562    -0.13300
C1961       C  0.86202598  0.61161425  0.18887592     0.03400
C1962       C  0.85076099  0.61413642  0.20911408    -0.25400
H1963       H  0.80337592  0.65621556  0.25408806     0.08500
H1964       H  0.82838584  0.62293905  0.24637486     0.12100
H1965       H  0.81235172  0.68116090  0.18846128     0.12000
H1966       H  0.83815311  0.65882713  0.16327246     0.11800
H1967       H  0.86529231  0.62648790  0.15663475     0.12300
H1968       H  0.85422980  0.60179756  0.22203873     0.14200
C1969       C  0.91942223  0.46839631  0.26033368    -0.05800
C1970       C  0.92609159  0.46346456  0.23893195    -0.05700
C1971       C  0.92422996  0.48046049  0.22273707    -0.23900
C1972       C  0.91500629  0.50242454  0.22763657     0.18300
C1973       C  0.90791251  0.50734062  0.24913071     0.15600
C1974       C  0.91054507  0.49040534  0.26541452    -0.18900
C1975       C  0.89781848  0.52892771  0.25387508    -0.20700
C1976       C  0.89469020  0.54550979  0.23750130    -0.13300
C1977       C  0.90196553  0.54101065  0.21611106     0.03400
C1978       C  0.91230145  0.51937822  0.21135861    -0.25400
H1979       H  0.93266696  0.44642830  0.23477319     0.08500
H1980       H  0.92956851  0.47629710  0.20632489     0.12100
H1981       H  0.90494876  0.49403100  0.28188657     0.12000
H1982       H  0.89209342  0.53290419  0.27022110     0.11800
H1983       H  0.88666996  0.56195249  0.24163737     0.12300
H1984       H  0.91776082  0.51550473  0.19490778     0.14200
C1985       C  0.57528624  0.08522196  0.15046806    -0.05800
C1986       C  0.58433986  0.09560321  0.13160113    -0.05700
C1987       C  0.57621698  0.08949164  0.11118647    -0.23900
C1988       C  0.55873973  0.07310928  0.10938407     0.18300
C1989       C  0.54867717  0.06364978  0.12839085     0.15600
C1990       C  0.55708806  0.06963983  0.14871667    -0.18900
C1991       C  0.53077568  0.04782611  0.12678917    -0.20700
C1992       C  0.52353421  0.04060171  0.10652964    -0.13300
C1993       C  0.53422760  0.04883733  0.08745203     0.03400
C1994       C  0.55155210  0.06553401  0.08899672    -0.25400
H1995       H  0.59832206  0.10772496  0.13258438     0.08500
H1996       H  0.58395710  0.09716767  0.09681867     0.12100
H1997       H  0.54972678  0.06181832  0.16320991     0.12000
H1998       H  0.52269504  0.04064813  0.14122732     0.11800
H1999       H  0.51005547  0.02790078  0.10584275     0.12300
H2000       H  0.55964757  0.07235265  0.07440501     0.14200
C2001       C  0.57432375  0.93355276  0.95850384    -0.05800
C2002       C  0.58003271  0.93244977  0.93631397    -0.05700
C2003       C  0.59863258  0.91849369  0.92903155    -0.23900
C2004       C  0.61219969  0.90577043  0.94384646     0.18300
C2005       C  0.60682449  0.90717183  0.96621038     0.15600
C2006       C  0.58783291  0.92070248  0.97332207    -0.18900
C2007       C  0.62079685  0.89537167  0.98121416    -0.20700
C2008       C  0.64004229  0.88241999  0.97420511    -0.13300
C2009       C  0.64553375  0.88055010  0.95201397     0.03400
C2010       C  0.63132835  0.89210526  0.93682034    -0.25400
H2011       H  0.57005449  0.94232314  0.92457034     0.08500
H2012       H  0.60258503  0.91788948  0.91184304     0.12100
H2013       H  0.58398877  0.92171968  0.99052872     0.12000
H2014       H  0.61705169  0.89643335  0.99842595     0.11800
H2015       H  0.65072033  0.87379818  0.98625336     0.12300
H2016       H  0.63563126  0.89114191  0.91970931     0.14200
C2017       C  0.46728707  0.96449319  0.90821786    -0.05800
C2018       C  0.47947083  0.96907515  0.88883033    -0.05700
C2019       C  0.47065997  0.96235170  0.86889168    -0.23900
C2020       C  0.44962697  0.95065784  0.86795228     0.18300
C2021       C  0.43765695  0.94510320  0.88733812     0.15600
C2022       C  0.44644496  0.95217887  0.90727832    -0.18900
C2023       C  0.41696852  0.93276968  0.88641914    -0.20700
C2024       C  0.40801444  0.92633890  0.86644007    -0.13300
C2025       C  0.41931916  0.93257338  0.84706235     0.03400
C2026       C  0.44024204  0.94462274  0.84795720    -0.25400
H2027       H  0.49555742  0.97838376  0.88900324     0.08500
H2028       H  0.48019188  0.96651580  0.85417508     0.12100
H2029       H  0.43689605  0.94823891  0.92204867     0.12000
H2030       H  0.40762712  0.92824102  0.90114377     0.11800
H2031       H  0.39188716  0.91710168  0.86609903     0.12300
H2032       H  0.44924312  0.94926968  0.83306367     0.14200
C2033       C  0.55732588  0.14311229  0.88179223    -0.05800
C2034       C  0.55132852  0.14961197  0.90307020    -0.05700
C2035       C  0.54319492  0.13359669  0.91808907    -0.23900
C2036       C  0.54094431  0.11056538  0.91227870     0.18300
C2037       C  0.54793456  0.10332051  0.89132616     0.15600
C2038       C  0.55619421  0.11969904  0.87609999    -0.18900
C2039       C  0.54599471  0.07995387  0.88598567    -0.20700
C2040       C  0.53704581  0.06414774  0.90114401    -0.13300
C2041       C  0.52946615  0.07150065  0.92175380     0.03400
C2042       C  0.53159637  0.09477806  0.92715823    -0.25400
H2043       H  0.55228105  0.16743844  0.90800149     0.08500
H2044       H  0.53820148  0.13936309  0.93415694     0.12100
H2045       H  0.56065099  0.11447587  0.85974172     0.12000
H2046       H  0.55132932  0.07391776  0.87010652     0.11800
H2047       H  0.53576353  0.04622031  0.89665251     0.12300
H2048       H  0.52624296  0.10060602  0.94312518     0.14200
C2049       C  0.10629041  0.16651477  0.67222851    -0.05800
C2050       C  0.12759352  0.15527233  0.66762556    -0.05700
C2051       C  0.14736159  0.15980279  0.67985865    -0.23900
C2052       C  0.14623170  0.17570641  0.69690614     0.18300
C2053       C  0.12463374  0.18622044  0.70226036     0.15600
C2054       C  0.10490796  0.18142485  0.69011172    -0.18900
C2055       C  0.12322425  0.20215070  0.71912735    -0.20700
C2056       C  0.14316554  0.20847816  0.72997176    -0.13300
C2057       C  0.16507523  0.19895411  0.72437407     0.03400
C2058       C  0.16635457  0.18197999  0.70813593    -0.25400
H2059       H  0.12924670  0.14375094  0.65398407     0.08500
H2060       H  0.16370576  0.15143736  0.67551586     0.12100
H2061       H  0.08861436  0.19012593  0.69410052     0.12000
H2062       H  0.10676436  0.21027179  0.72353023     0.11800
H2063       H  0.14144726  0.22135047  0.74250564     0.12300
H2064       H  0.18304598  0.17447695  0.70356147     0.14200
C2065       C  0.37417774  0.10248090  0.69909902    -0.05800
C2066       C  0.37954824  0.12427570  0.69051629    -0.05700
C2067       C  0.36592481  0.14370648  0.69602731    -0.23900
C2068       C  0.34654824  0.14149868  0.70990206     0.18300
C2069       C  0.34043373  0.11941714  0.71766190     0.15600
C2070       C  0.35432418  0.10019204  0.71234720    -0.18900
C2071       C  0.32071978  0.11690071  0.73093728    -0.20700
C2072       C  0.30735164  0.13617437  0.73689393    -0.13300
C2073       C  0.31377014  0.15830505  0.73008658     0.03400
C2074       C  0.33331815  0.16090036  0.71641280    -0.25400
H2075       H  0.39473806  0.12641032  0.68025283     0.08500
H2076       H  0.37073434  0.16047288  0.68972332     0.12100
H2077       H  0.34979910  0.08337896  0.71878454     0.12000
H2078       H  0.31575408  0.10003383  0.73687535     0.11800
H2079       H  0.29234974  0.13386486  0.74737348     0.12300
H2080       H  0.33814636  0.17795857  0.71084092     0.14200
C2081       C  0.40453441  0.31869996  0.83859125    -0.05800
C2082       C  0.38277621  0.32715547  0.84581771    -0.05700
C2083       C  0.36296778  0.32456285  0.83319764    -0.23900
C2084       C  0.36453156  0.31338818  0.81313988     0.18300
C2085       C  0.38647399  0.30566437  0.80538182     0.15600
C2086       C  0.40625633  0.30849824  0.81803124    -0.18900
C2087       C  0.38817254  0.29421781  0.78553309    -0.20700
C2088       C  0.36819314  0.28898593  0.77418802    -0.13300
C2089       C  0.34614218  0.29549968  0.78220659     0.03400
C2090       C  0.34448454  0.30864551  0.80126777    -0.25400
H2091       H  0.38090986  0.33509619  0.86155614     0.08500
H2092       H  0.34632242  0.33063283  0.83944603     0.12100
H2093       H  0.42291611  0.30207320  0.81210105     0.12000
H2094       H  0.40488458  0.28835603  0.77926441     0.11800
H2095       H  0.36992090  0.27902635  0.75949015     0.12300
H2096       H  0.32755776  0.31365223  0.80769022     0.14200
C2097       C  0.14169322  0.61258003  0.67964019    -0.05800
C2098       C  0.13629846  0.61923000  0.70097735    -0.05700
C2099       C  0.14519811  0.63934614  0.70947619    -0.23900
C2100       C  0.16016975  0.65290839  0.69694881     0.18300
C2101       C  0.16499370  0.64693743  0.67516766     0.15600
C2102       C  0.15529616  0.62699996  0.66646606    -0.18900
C2103       C  0.18061769  0.66017375  0.66296389    -0.20700
C2104       C  0.19227941  0.67830248  0.67256649    -0.13300
C2105       C  0.18821511  0.68383002  0.69444753     0.03400
C2106       C  0.17145013  0.67149549  0.70628660    -0.25400
H2107       H  0.12596974  0.60823833  0.71142920     0.08500
H2108       H  0.14133413  0.64363178  0.72619780     0.12100
H2109       H  0.15990559  0.62170675  0.65015627     0.12000
H2110       H  0.18452955  0.65592764  0.64624773     0.11800
H2111       H  0.20493545  0.68762665  0.66299282     0.12300
H2112       H  0.16815538  0.67542197  0.72319283     0.14200
C2113       C  0.04915575  0.45487117  0.90282230    -0.05800
C2114       C  0.06395404  0.43529362  0.90371856    -0.05700
C2115       C  0.07730723  0.42865782  0.88571985    -0.23900
C2116       C  0.07655296  0.44180019  0.86657566     0.18300
C2117       C  0.06078791  0.46077298  0.86507945     0.15600
C2118       C  0.04682312  0.46693058  0.88308730    -0.18900
C2119       C  0.06034112  0.47414166  0.84607072    -0.20700
C2120       C  0.07626182  0.46968532  0.82931039    -0.13300
C2121       C  0.09285921  0.45158759  0.83103120     0.03400
C2122       C  0.09224784  0.43712218  0.84944700    -0.25400
H2123       H  0.06590013  0.42562419  0.91871970     0.08500
H2124       H  0.08910126  0.41395087  0.88715699     0.12100
H2125       H  0.03561727  0.48214800  0.88227140     0.12000
H2126       H  0.04831626  0.48864931  0.84450795     0.11800
H2127       H  0.07597598  0.48095632  0.81521604     0.12300
H2128       H  0.10479111  0.42304902  0.85102463     0.14200
C2129       C  0.16153949  0.41064205  0.79863087    -0.05800
C2130       C  0.18367232  0.41426158  0.78949833    -0.05700
C2131       C  0.19865730  0.39574433  0.78502353    -0.23900
C2132       C  0.19163324  0.37319467  0.78924570     0.18300
C2133       C  0.16978321  0.36934832  0.79922379     0.15600
C2134       C  0.15503409  0.38816743  0.80429515    -0.18900
C2135       C  0.16255807  0.34670691  0.80284411    -0.20700
C2136       C  0.17633240  0.32813354  0.79574446    -0.13300
C2137       C  0.19780814  0.33185576  0.78534988     0.03400
C2138       C  0.20565280  0.35444959  0.78271558    -0.25400
H2139       H  0.18916668  0.43148174  0.78518764     0.08500
H2140       H  0.21534236  0.39902389  0.77745094     0.12100
H2141       H  0.13796508  0.38521581  0.81121660     0.12000
H2142       H  0.14593207  0.34337690  0.81050152     0.11800
H2143       H  0.17005085  0.31080859  0.79817836     0.12300
H2144       H  0.22212067  0.35750016  0.77461392     0.14200
C2145       C  0.13445538  0.48411719  0.76847431    -0.05800
C2146       C  0.12738866  0.50668818  0.77364180    -0.05700
C2147       C  0.12860304  0.52424539  0.75814241    -0.23900
C2148       C  0.13628487  0.51933709  0.73706093     0.18300
C2149       C  0.14373423  0.49671032  0.73169171     0.15600
C2150       C  0.14328749  0.47930280  0.74762862    -0.18900
C2151       C  0.15052569  0.49176780  0.71028998    -0.20700
C2152       C  0.14904613  0.50891846  0.69422689    -0.13300
C2153       C  0.14153283  0.53135591  0.69954601     0.03400
C2154       C  0.13571316  0.53655158  0.72108248    -0.25400
H2155       H  0.12083155  0.51073763  0.78970355     0.08500
H2156       H  0.12287472  0.54152238  0.76246752     0.12100
H2157       H  0.14871421  0.46185484  0.74354499     0.12000
H2158       H  0.15628124  0.47452961  0.70586716     0.11800
H2159       H  0.15370051  0.50467946  0.67766831     0.12300
H2160       H  0.12961489  0.55378215  0.72522763     0.14200
C2161       C  0.21563077  0.11636905  0.88576488    -0.05800
C2162       C  0.23859212  0.12408768  0.88650191    -0.05700
C2163       C  0.24857999  0.13544174  0.86880352    -0.23900
C2164       C  0.23582996  0.13939446  0.84994984     0.18300
C2165       C  0.21341129  0.13022468  0.84822272     0.15600
C2166       C  0.20346867  0.11858369  0.86612447    -0.18900
C2167       C  0.20088521  0.13412659  0.82909099    -0.20700
C2168       C  0.20977171  0.14841208  0.81261849    -0.13300
C2169       C  0.23124944  0.15900570  0.81508953    -0.11800
C2170       C  0.24458979  0.15362582  0.83340283    -0.25400
H2171       H  0.24863387  0.12223370  0.90114350     0.08500
H2172       H  0.26593682  0.14204138  0.87023662     0.12100
H2173       H  0.18586200  0.11252293  0.86514708     0.12000
H2174       H  0.18376136  0.12708398  0.82732368     0.11800
H2175       H  0.19918048  0.15243536  0.79866037     0.12300
H2176       H  0.26125528  0.16165511  0.83534027     0.14200
C2177       C  0.34763959  0.10108548  0.06232115    -0.05800
C2178       C  0.35931112  0.09052212  0.07978966    -0.05700
C2179       C  0.38143545  0.08025450  0.07667544    -0.23900
C2180       C  0.39231182  0.08068439  0.05611730     0.18300
C2181       C  0.38098222  0.09225933  0.03887429     0.15600
C2182       C  0.35893362  0.10220891  0.04205881    -0.18900
C2183       C  0.39157971  0.09339938  0.01843406    -0.20700
C2184       C  0.41303367  0.08271570  0.01478461    -0.13300
C2185       C  0.42440230  0.07031514  0.03139160     0.03400
C2186       C  0.41399510  0.06953278  0.05224296    -0.25400
H2187       H  0.35102013  0.08948896  0.09559472     0.08500
H2188       H  0.38984794  0.07168106  0.09022189     0.12100
H2189       H  0.35036465  0.11063752  0.02849335     0.12000
H2190       H  0.38308799  0.10229679  0.00509693     0.11800
H2191       H  0.42036476  0.08359965  0.99856721     0.12300
H2192       H  0.42254315  0.06012936  0.06524558     0.14200
C2193       C  0.27483457  0.11856238  0.02553825    -0.05800
C2194       C  0.28687477  0.12075760  0.00568257    -0.05700
C2195       C  0.27523652  0.11978875  0.98602018    -0.23900
C2196       C  0.25130462  0.11613897  0.98571229     0.18300
C2197       C  0.23888552  0.11401520  0.00551102     0.15600
C2198       C  0.25066407  0.11558164  0.02534220    -0.18900
C2199       C  0.21501191  0.10984880  0.00506604    -0.20700
C2200       C  0.20367125  0.10744011  0.98528841    -0.13300
C2201       C  0.21587023  0.10939151  0.96546744     0.03400
C2202       C  0.23973288  0.11408652  0.96590930    -0.25400
H2203       H  0.30545097  0.12320286  0.00534653     0.08500
H2204       H  0.28505947  0.12147672  0.97102782     0.12100
H2205       H  0.24121893  0.11365408  0.04052329     0.12000
H2206       H  0.20514873  0.10812638  0.02002822     0.11800
H2207       H  0.18528941  0.10397310  0.98554838     0.12300
H2208       H  0.24948538  0.11561043  0.95085526     0.14200
C2209       C  0.47771985  0.53623272  0.40357915    -0.05800
C2210       C  0.48889777  0.52507428  0.38607499    -0.05700
C2211       C  0.48055871  0.52777131  0.36501866    -0.23900
C2212       C  0.46099300  0.54182547  0.36100942     0.18300
C2213       C  0.45036218  0.55409802  0.37825574     0.15600
C2214       C  0.45872720  0.55118427  0.39939487    -0.18900
C2215       C  0.43117088  0.56864929  0.37414984    -0.20700
C2216       C  0.42220910  0.57055546  0.35326809    -0.13300
C2217       C  0.43204736  0.55768486  0.33619408     0.03400
C2218       C  0.45162587  0.54349667  0.34014469    -0.25400
H2219       H  0.50360378  0.51352569  0.38873712     0.08500
H2220       H  0.48911325  0.51846191  0.35194968     0.12100
H2221       H  0.45007174  0.56012860  0.41264148     0.12000
H2222       H  0.42290769  0.57833025  0.38713592     0.11800
H2223       H  0.40715553  0.58164520  0.35059218     0.12300
H2224       H  0.45954474  0.53376417  0.32700002     0.14200
C2225       C  0.69222265  0.35165183  0.72452255    -0.05800
C2226       C  0.69957361  0.37259733  0.73303757    -0.05700
C2227       C  0.68646097  0.39294402  0.72991559    -0.23900
C2228       C  0.66602827  0.39284467  0.71775802     0.18300
C2229       C  0.65902112  0.37211772  0.70824755     0.15600
C2230       C  0.67196765  0.35160837  0.71193282    -0.18900
C2231       C  0.63907940  0.37225975  0.69538744    -0.20700
C2232       C  0.62587240  0.39259605  0.69243006    -0.13300
C2233       C  0.63210586  0.41312221  0.70255763     0.03400
C2234       C  0.65242935  0.41307850  0.71507331    -0.25400
H2235       H  0.71510639  0.37308596  0.74269241     0.08500
H2236       H  0.69222725  0.40874339  0.73714461     0.12100
H2237       H  0.66633093  0.33560733  0.70497209     0.12000
H2238       H  0.63359733  0.35659117  0.68772553     0.11800
H2239       H  0.61046579  0.39211784  0.68260743     0.12300
H2240       H  0.65774559  0.42882102  0.72272834     0.14200
C2241       C  0.57280603  0.46153641  0.66397369    -0.05800
C2242       C  0.56095569  0.48297169  0.66208323    -0.05700
C2243       C  0.54674901  0.48796780  0.64441901    -0.23900
C2244       C  0.54407746  0.47171264  0.62810328     0.18300
C2245       C  0.55529036  0.44985727  0.63002199     0.15600
C2246       C  0.56942132  0.44483145  0.64799869    -0.18900
C2247       C  0.55298040  0.43377620  0.61343641    -0.20700
C2248       C  0.54097731  0.43980878  0.59460405    -0.13300
C2249       C  0.53056640  0.46181207  0.59219255     0.03400
C2250       C  0.53141356  0.47740231  0.60938359    -0.25400
H2251       H  0.56298876  0.49623255  0.67408478     0.08500
H2252       H  0.53834062  0.50481060  0.64324817     0.12100
H2253       H  0.57830313  0.42822320  0.64916724     0.12000
H2254       H  0.56134383  0.41691501  0.61458628     0.11800
H2255       H  0.54062011  0.42758057  0.58147282     0.12300
H2256       H  0.52382283  0.49455691  0.60748137     0.14200
C2257       C  0.64547783  0.62073082  0.80596064    -0.05800
C2258       C  0.64440435  0.62508224  0.78357180    -0.05700
C2259       C  0.65520543  0.64411390  0.77440520    -0.23900
C2260       C  0.66766347  0.65892557  0.78741042     0.18300
C2261       C  0.66821785  0.65531695  0.81009344     0.15600
C2262       C  0.65673530  0.63638122  0.81932932    -0.18900
C2263       C  0.68119978  0.67004343  0.82288882    -0.20700
C2264       C  0.69450591  0.68728652  0.81312276    -0.13300
C2265       C  0.69464609  0.69033238  0.79046782     0.03400
C2266       C  0.68050195  0.67657059  0.77784815    -0.25400
H2267       H  0.63556294  0.61343657  0.77300461     0.08500
H2268       H  0.65453701  0.64674714  0.75701673     0.12100
H2269       H  0.65770448  0.63310911  0.83661976     0.12000
H2270       H  0.68172974  0.66770234  0.84031329     0.11800
H2271       H  0.70503754  0.69792539  0.82324790     0.12300
H2272       H  0.68044021  0.67871205  0.76037726     0.14200
C2273       C  0.61166936  0.57442349  0.86532232    -0.05800
C2274       C  0.59555961  0.59090083  0.87312248    -0.05700
C2275       C  0.58345102  0.58694430  0.89256105    -0.23900
C2276       C  0.58761568  0.56661295  0.90455768     0.18300
C2277       C  0.60480359  0.55066191  0.89723084     0.15600
C2278       C  0.61654030  0.55457493  0.87762971    -0.18900
C2279       C  0.60947275  0.53059728  0.90920353    -0.20700
C2280       C  0.59661276  0.52578318  0.92782800    -0.13300
C2281       C  0.57855703  0.54078442  0.93480627     0.03400
C2282       C  0.57445835  0.56152388  0.92329517    -0.25400
H2283       H  0.59149995  0.60624372  0.86363704     0.08500
H2284       H  0.57045175  0.59945469  0.89790166     0.12100
H2285       H  0.62905064  0.54188635  0.87161701     0.12000
H2286       H  0.62270358  0.51830803  0.90387572     0.11800
H2287       H  0.60030450  0.50968800  0.93627035     0.12300
H2288       H  0.56071735  0.57330869  0.92851074     0.14200
C2289       C  0.62500390  0.54050342  0.79397316    -0.05800
C2290       C  0.62612185  0.51754355  0.80143489    -0.05700
C2291       C  0.62337397  0.49933247  0.78705662    -0.23900
C2292       C  0.61887292  0.50384374  0.76511091     0.18300
C2293       C  0.61705627  0.52693670  0.75765189     0.15600
C2294       C  0.62057753  0.54504200  0.77200161    -0.18900
C2295       C  0.61144504  0.53158338  0.73600956    -0.20700
C2296       C  0.60784309  0.51350844  0.72178436    -0.13300
C2297       C  0.61038786  0.49048370  0.72879627     0.03400
C2298       C  0.61594190  0.48573171  0.75052180    -0.25400
H2299       H  0.62937674  0.51368764  0.81834268     0.08500
H2300       H  0.62456011  0.48175381  0.79312668     0.12100
H2301       H  0.61924601  0.56271763  0.76616473     0.12000
H2302       H  0.60972894  0.54919448  0.73010838     0.11800
H2303       H  0.60351760  0.51754254  0.70512766     0.12300
H2304       H  0.61756059  0.46799565  0.75612297     0.14200
C2305       C  0.54308180  0.36607902  0.37874653    -0.05800
C2306       C  0.56141815  0.38133601  0.38179228    -0.05700
C2307       C  0.55762250  0.40230501  0.39236466    -0.23900
C2308       C  0.53545639  0.40835297  0.40025909     0.18300
C2309       C  0.51679062  0.39345284  0.39676172     0.15600
C2310       C  0.52067416  0.37256303  0.38593774    -0.18900
C2311       C  0.49467792  0.39924980  0.40487949    -0.20700
C2312       C  0.49135939  0.41888385  0.41748262    -0.13300
C2313       C  0.50998941  0.43331832  0.42189574     0.03400
C2314       C  0.53185404  0.42843850  0.41249414    -0.25400
H2315       H  0.57885152  0.37691436  0.37634744     0.08500
H2316       H  0.57214603  0.41350547  0.39485192     0.12100
H2317       H  0.50629680  0.36112832  0.38361422     0.12000
H2318       H  0.48013826  0.38811706  0.40221984     0.11800
H2319       H  0.47431263  0.42237337  0.42441301     0.12300
H2320       H  0.54637828  0.43936245  0.41590022     0.14200
C2321       C  0.47343820  0.21382562  0.35375327    -0.05800
C2322       C  0.49483966  0.20883155  0.36349867    -0.05700
C2323       C  0.51061353  0.22628424  0.36698316    -0.23900
C2324       C  0.50506677  0.24912508  0.36115828     0.18300
C2325       C  0.48311007  0.25461143  0.35231914     0.15600
C2326       C  0.46751721  0.23684017  0.34837941    -0.18900
C2327       C  0.47739245  0.27770723  0.34727492    -0.20700
C2328       C  0.49361988  0.29502565  0.35023325    -0.13300
C2329       C  0.51586926  0.28937226  0.35783529     0.03400
C2330       C  0.52134833  0.26647090  0.36360110    -0.25400
H2331       H  0.49969886  0.19124885  0.36780152     0.08500
H2332       H  0.52728118  0.22186563  0.37398169     0.12100
H2333       H  0.45086283  0.24086860  0.34114994     0.12000
H2334       H  0.46056119  0.28230307  0.34072005     0.11800
H2335       H  0.48915942  0.31265479  0.34574274     0.12300
H2336       H  0.53844535  0.26214166  0.36975335     0.14200
C2337       C  0.29136475  0.37640968  0.62438450    -0.05800
C2338       C  0.26777187  0.37065528  0.62610374    -0.05700
C2339       C  0.25910378  0.35937856  0.64437042    -0.23900
C2340       C  0.27374115  0.35363797  0.66151924     0.18300
C2341       C  0.29705613  0.36079179  0.66098846     0.15600
C2342       C  0.30579293  0.37226517  0.64236344    -0.18900
C2343       C  0.31139176  0.35512679  0.67860904    -0.20700
C2344       C  0.30316227  0.34112830  0.69565323    -0.13300
C2345       C  0.28054973  0.33257131  0.69524271     0.03400
C2346       C  0.26570248  0.33964119  0.67854535    -0.25400
H2347       H  0.25598372  0.37403621  0.61287533     0.08500
H2348       H  0.24110495  0.35433425  0.64469250     0.12100
H2349       H  0.32393269  0.37674822  0.64142967     0.12000
H2350       H  0.32924329  0.36059129  0.67871820     0.11800
H2351       H  0.31492555  0.33570878  0.70835243     0.12300
H2352       H  0.24822354  0.33308437  0.67818338     0.14200
C2353       C  0.35313718  0.40887883  0.57601372    -0.05800
C2354       C  0.36444487  0.42150282  0.59195214    -0.05700
C2355       C  0.38524916  0.43280717  0.58701903    -0.23900
C2356       C  0.39512654  0.43157526  0.56609519     0.18300
C2357       C  0.38419707  0.41813043  0.55037171     0.15600
C2358       C  0.36351347  0.40693074  0.55541179    -0.18900
C2359       C  0.39371144  0.41648356  0.52954272    -0.20700
C2360       C  0.41362448  0.42840393  0.52402812    -0.13300
C2361       C  0.42468738  0.44238976  0.53915934     0.03400
C2362       C  0.41536957  0.44377068  0.56038387    -0.25400
H2363       H  0.35680634  0.42329092  0.60797281     0.08500
H2364       H  0.39333724  0.44286937  0.59941797     0.12100
H2365       H  0.35520785  0.39698850  0.54302506     0.12000
H2366       H  0.38551858  0.40623282  0.51732800     0.11800
H2367       H  0.42005694  0.42696079  0.50753348     0.12300
H2368       H  0.42364167  0.45438022  0.57226370     0.14200
C2369       C  0.27843356  0.38452838  0.54673657    -0.05800
C2370       C  0.25439225  0.38363874  0.55068841    -0.05700
C2371       C  0.23903648  0.38028691  0.53383187    -0.23900
C2372       C  0.24736908  0.37755457  0.51262007     0.18300
C2373       C  0.27147348  0.37821634  0.50828827     0.15600
C2374       C  0.28691048  0.38191447  0.52537797    -0.18900
C2375       C  0.27959970  0.37513540  0.48695404    -0.20700
C2376       C  0.26396740  0.37189891  0.47008994    -0.13300
C2377       C  0.23991847  0.37178925  0.47423798     0.03400
C2378       C  0.23185835  0.37435261  0.49568824    -0.25400
H2379       H  0.24734656  0.38569738  0.56691327     0.08500
H2380       H  0.22060304  0.37981864  0.53741305     0.12100
H2381       H  0.30541342  0.38237640  0.52213262     0.12000
H2382       H  0.29801361  0.37541624  0.48327960     0.11800
H2383       H  0.27070390  0.36990097  0.45375319     0.12300
H2384       H  0.21341410  0.37409767  0.49928334     0.14200
C2385       C  0.41728054  0.96508084  0.44677812    -0.05800
C2386       C  0.39485135  0.97271337  0.45253642    -0.05700
C2387       C  0.37559276  0.96015559  0.44664909    -0.23900
C2388       C  0.37854206  0.93938289  0.43543311     0.18300
C2389       C  0.40098310  0.93184708  0.42890281     0.15600
C2390       C  0.42030371  0.94502683  0.43434344    -0.18900
C2391       C  0.40370163  0.91061239  0.41824609    -0.20700
C2392       C  0.38453730  0.89645471  0.41517046    -0.13300
C2393       C  0.36236264  0.90345412  0.42253257     0.03400
C2394       C  0.35949701  0.92538903  0.43188757    -0.25400
H2395       H  0.39233467  0.98792795  0.46240082     0.08500
H2396       H  0.35848239  0.96607945  0.45183162     0.12100
H2397       H  0.43768840  0.93887012  0.43031760     0.12000
H2398       H  0.42077010  0.90451537  0.41313713     0.11800
H2399       H  0.38724828  0.87961889  0.40804445     0.12300
H2400       H  0.34247260  0.93114973  0.43750196     0.14200
C2401       C  0.43025697  0.05568004  0.65492034    -0.05800
C2402       C  0.44384280  0.03527275  0.65334283    -0.05700
C2403       C  0.45648632  0.03023056  0.63458143    -0.23900
C2404       C  0.45580382  0.04540651  0.61686256     0.18300
C2405       C  0.44258759  0.06615772  0.61818362     0.15600
C2406       C  0.42997169  0.07126437  0.63727574    -0.18900
C2407       C  0.44184451  0.08112548  0.60018754    -0.20700
C2408       C  0.45344550  0.07520933  0.58090938    -0.13300
C2409       C  0.46626060  0.05437742  0.57938895     0.03400
C2410       C  0.46769294  0.03979488  0.59766186    -0.25400
H2411       H  0.44458986  0.02289575  0.66658155     0.08500
H2412       H  0.46653064  0.01425057  0.63382888     0.12100
H2413       H  0.41966004  0.08706308  0.63820853     0.12000
H2414       H  0.43191848  0.09717005  0.60087059     0.11800
H2415       H  0.45219024  0.08683560  0.56711196     0.12300
H2416       H  0.47738729  0.02360780  0.59675251     0.14200
C2417       C  0.53444374  0.95819135  0.40969327    -0.05800
C2418       C  0.55063057  0.93963814  0.41003294    -0.05700
C2419       C  0.56200262  0.93238123  0.39099250    -0.23900
C2420       C  0.55766368  0.94367259  0.37119059     0.18300
C2421       C  0.54102376  0.96192565  0.37061143     0.15600
C2422       C  0.52938996  0.96884929  0.38968525    -0.18900
C2423       C  0.53676701  0.97354520  0.35106550    -0.20700
C2424       C  0.54926978  0.96766833  0.33238815    -0.13300
C2425       C  0.56627598  0.94986625  0.33262184     0.03400
C2426       C  0.57006424  0.93755087  0.35211546    -0.25400
H2427       H  0.55492860  0.93101039  0.42514099     0.08500
H2428       H  0.57462796  0.91832079  0.39187199     0.12100
H2429       H  0.51712236  0.98324421  0.38903455     0.12000
H2430       H  0.52404819  0.98753774  0.35028793     0.11800
H2431       H  0.54565471  0.97733251  0.31766767     0.12300
H2432       H  0.58310579  0.92384073  0.35262689     0.14200
C2433       C  0.45311526  0.08403861  0.43648016    -0.05800
C2434       C  0.45392873  0.10667864  0.44438860    -0.05700
C2435       C  0.45097720  0.12559594  0.43052854    -0.23900
C2436       C  0.44685225  0.12229772  0.40850857     0.18300
C2437       C  0.44441863  0.09972800  0.40053362     0.15600
C2438       C  0.44765226  0.08067501  0.41457368    -0.18900
C2439       C  0.43965007  0.09668327  0.37850099    -0.20700
C2440       C  0.43827950  0.11575556  0.36439877    -0.13300
C2441       C  0.44198988  0.13807942  0.37207547     0.03400
C2442       C  0.44582513  0.14122092  0.39425157    -0.25400
H2443       H  0.45807820  0.10985738  0.46114250     0.08500
H2444       H  0.45263192  0.14280929  0.43692392     0.12100
H2445       H  0.44670906  0.06332878  0.40831687     0.12000
H2446       H  0.43748134  0.07954936  0.37209820     0.11800
H2447       H  0.43517866  0.11298299  0.34736805     0.12300
H2448       H  0.44831425  0.15843687  0.40039303     0.14200
C2449       C  0.41455231  0.70675791  0.64802769    -0.05800
C2450       C  0.41430610  0.72916371  0.65669914    -0.05700
C2451       C  0.39443558  0.73849325  0.66645758    -0.23900
C2452       C  0.37417245  0.72575363  0.66774716     0.18300
C2453       C  0.37384247  0.70331439  0.65902907     0.15600
C2454       C  0.39412700  0.69383410  0.64930534    -0.18900
C2455       C  0.35322401  0.69084845  0.66030782    -0.20700
C2456       C  0.33337841  0.70038564  0.67042896    -0.13300
C2457       C  0.33388355  0.72245172  0.67963806     0.03400
C2458       C  0.35434611  0.73510086  0.67793357    -0.25400
H2459       H  0.42961576  0.73966712  0.65611243     0.08500
H2460       H  0.39496257  0.75571755  0.67306011     0.12100
H2461       H  0.39396495  0.67659208  0.64271918     0.12000
H2462       H  0.35252422  0.67363402  0.65373345     0.11800
H2463       H  0.31789069  0.69018036  0.67171147     0.12300
H2464       H  0.35498426  0.75217975  0.68486904     0.14200
C2465       C  0.46293928  0.64389978  0.61417677    -0.05800
C2466       C  0.44410430  0.62929933  0.61108462    -0.05700
C2467       C  0.44738818  0.60789238  0.60094638    -0.23900
C2468       C  0.46955197  0.60072792  0.59366989     0.18300
C2469       C  0.48868289  0.61486822  0.59761613     0.15600
C2470       C  0.48530081  0.63610564  0.60792548    -0.18900
C2471       C  0.51085582  0.60803960  0.59041816    -0.20700
C2472       C  0.51393840  0.58801535  0.57836450    -0.13300
C2473       C  0.49497893  0.57420182  0.57338276     0.03400
C2474       C  0.47284647  0.58025997  0.58174043    -0.25400
H2475       H  0.42672184  0.63472389  0.61585523     0.08500
H2476       H  0.43249006  0.59726008  0.59823010     0.12100
H2477       H  0.50013905  0.64691100  0.61040726     0.12000
H2478       H  0.52573110  0.61861333  0.59345596     0.11800
H2479       H  0.53119433  0.58368074  0.57235024     0.12300
H2480       H  0.45806932  0.56984981  0.57793060     0.14200
C2481       C  0.62720629  0.81015485  0.62550575    -0.05800
C2482       C  0.64406126  0.82694331  0.62872754    -0.05700
C2483       C  0.66487064  0.82125932  0.63920497    -0.23900
C2484       C  0.66920918  0.79869579  0.64680188     0.18300
C2485       C  0.65282168  0.78148761  0.64281768     0.15600
C2486       C  0.63218248  0.78722399  0.63196664    -0.18900
C2487       C  0.65677016  0.75903576  0.65071312    -0.20700
C2488       C  0.67613202  0.75392580  0.66338447    -0.13300
C2489       C  0.69229923  0.77098806  0.66807264     0.03400
C2490       C  0.68906410  0.79326339  0.65914370    -0.25400
H2491       H  0.64079784  0.84471700  0.62393985     0.08500
H2492       H  0.67719840  0.83471478  0.64205548     0.12100
H2493       H  0.61953138  0.77396493  0.62946277     0.12000
H2494       H  0.64442959  0.74560517  0.64777667     0.11800
H2495       H  0.67820354  0.73662637  0.66996809     0.12300
H2496       H  0.70122223  0.80664298  0.66282714     0.14200
C2497       C  0.57085710  0.86827718  0.59664405    -0.05800
C2498       C  0.55001271  0.87900662  0.60353758    -0.05700
C2499       C  0.54279938  0.90017393  0.59470506    -0.23900
C2500       C  0.55600292  0.91074064  0.57834788     0.18300
C2501       C  0.57713906  0.90020905  0.57138226     0.15600
C2502       C  0.58467465  0.87922950  0.58088461    -0.18900
C2503       C  0.58980489  0.91031959  0.55435788    -0.20700
C2504       C  0.58110067  0.92999084  0.54369588    -0.13300
C2505       C  0.55996437  0.94029780  0.55027928     0.03400
C2506       C  0.54783612  0.93101942  0.56809250    -0.25400
H2507       H  0.53912140  0.87082843  0.61567812     0.08500
H2508       H  0.52652257  0.90790101  0.60018197     0.12100
H2509       H  0.60056579  0.87084552  0.57523076     0.12000
H2510       H  0.60598219  0.90251242  0.54873565     0.11800
H2511       H  0.59062532  0.93690309  0.52994004     0.12300
H2512       H  0.53129058  0.93866361  0.57298554     0.14200
C2513       C  0.54470128  0.79160965  0.61813452    -0.05800
C2514       C  0.52150575  0.79962317  0.61785312    -0.05700
C2515       C  0.50328053  0.78423499  0.61981816    -0.23900
C2516       C  0.50789684  0.76050940  0.62186639     0.18300
C2517       C  0.53111226  0.75222965  0.62222892     0.15600
C2518       C  0.54935174  0.76783921  0.62063078    -0.18900
C2519       C  0.53568628  0.72843484  0.62386017    -0.20700
C2520       C  0.51742914  0.71296406  0.62501799    -0.13300
C2521       C  0.49431633  0.72106226  0.62496753     0.03400
C2522       C  0.48968321  0.74491581  0.62341464    -0.25400
H2523       H  0.51739761  0.81784807  0.61610244     0.08500
H2524       H  0.48558240  0.79087437  0.61951907     0.12100
H2525       H  0.56712998  0.76140418  0.62080800     0.12000
H2526       H  0.55337616  0.72178374  0.62414186     0.11800
H2527       H  0.52138931  0.69467132  0.62634001     0.12300
H2528       H  0.47189510  0.75134036  0.62316093     0.14200
C2529       C  0.26995830  0.17586664  0.17657900    -0.05800
C2530       C  0.28800962  0.15947216  0.17919002    -0.05700
C2531       C  0.29521805  0.14552385  0.16183453    -0.23900
C2532       C  0.28429735  0.14754815  0.14165370     0.18300
C2533       C  0.26511486  0.16290091  0.13940149     0.15600
C2534       C  0.25813815  0.17695700  0.15678882    -0.18900
C2535       C  0.25374416  0.16461357  0.11952617    -0.20700
C2536       C  0.26190542  0.15207448  0.10170776    -0.13300
C2537       C  0.28175735  0.13762877  0.10324416     0.03400
C2538       C  0.29260702  0.13509471  0.12352881    -0.25400
H2539       H  0.29733555  0.15827705  0.19429253     0.08500
H2540       H  0.30977375  0.13365654  0.16400946     0.12100
H2541       H  0.24394600  0.18930857  0.15470073     0.12000
H2542       H  0.23884641  0.17611069  0.11759093     0.11800
H2543       H  0.25303884  0.15436940  0.08645759     0.12300
H2544       H  0.30774806  0.12385628  0.12511829     0.14200
C2545       C  0.30937748  0.33904181  0.23214456    -0.05800
C2546       C  0.30494351  0.36146463  0.23966719    -0.05700
C2547       C  0.31906473  0.37960476  0.23289256    -0.23900
C2548       C  0.33738919  0.37559125  0.21810318     0.18300
C2549       C  0.34157696  0.35309659  0.21019241     0.15600
C2550       C  0.32781304  0.33498160  0.21752284    -0.18900
C2551       C  0.35925634  0.34909091  0.19483364    -0.20700
C2552       C  0.37263625  0.36727852  0.18719244    -0.13300
C2553       C  0.36889408  0.38964142  0.19514401     0.03400
C2554       C  0.35135590  0.39367899  0.21078079    -0.25400
H2555       H  0.29082702  0.36484058  0.25100579     0.08500
H2556       H  0.31553881  0.39676782  0.23904163     0.12100
H2557       H  0.33110843  0.31772063  0.21145302     0.12000
H2558       H  0.36254836  0.33194489  0.18853951     0.11800
H2559       H  0.38604298  0.36383347  0.17514469     0.12300
H2560       H  0.34813589  0.41097987  0.21675083     0.14200
C2561       C  0.33841606  0.19362933  0.26875251    -0.05800
C2562       C  0.33601778  0.17313301  0.28085630    -0.05700
C2563       C  0.35483137  0.16377776  0.29233192    -0.23900
C2564       C  0.37623472  0.17488895  0.29196247     0.18300
C2565       C  0.37930305  0.19426220  0.27822059     0.15600
C2566       C  0.36050443  0.20330617  0.26652818    -0.18900
C2567       C  0.40060666  0.20540629  0.27767431    -0.20700
C2568       C  0.41790636  0.19893904  0.29220960    -0.13300
C2569       C  0.41429096  0.18109475  0.30741467     0.03400
C2570       C  0.39394924  0.16815934  0.30628886    -0.25400
H2571       H  0.31925678  0.16519046  0.28263626     0.08500
H2572       H  0.35224261  0.14868405  0.30250167     0.12100
H2573       H  0.36271907  0.21887739  0.25689881     0.12000
H2574       H  0.40338642  0.22001768  0.26692934     0.11800
H2575       H  0.43367135  0.20877623  0.29230274     0.12300
H2576       H  0.39105046  0.15416965  0.31772394     0.14200
C2577       C  0.22722832  0.32747378  0.32089601    -0.05800
C2578       C  0.20506369  0.33771099  0.32294719    -0.05700
C2579       C  0.19853975  0.34907240  0.34209228    -0.23900
C2580       C  0.21413014  0.35025070  0.35936273     0.18300
C2581       C  0.23699805  0.34145115  0.35661270     0.15600
C2582       C  0.24338894  0.33024442  0.33740899    -0.18900
C2583       C  0.25273089  0.34266040  0.37360971    -0.20700
C2584       C  0.24552929  0.35112480  0.39369036    -0.13300
C2585       C  0.22243970  0.35861357  0.39721099     0.03400
C2586       C  0.20698940  0.35887596  0.37966288    -0.25400
H2587       H  0.19234627  0.33556410  0.31040187     0.08500
H2588       H  0.18099178  0.35590218  0.34379393     0.12100
H2589       H  0.26054529  0.32236906  0.33580743     0.12000
H2590       H  0.27039718  0.33621864  0.37163954     0.11800
H2591       H  0.25794061  0.35096567  0.40670882     0.12300
H2592       H  0.18922523  0.36489421  0.38198656     0.14200
C2593       C  0.20876215  0.70180138  0.17417849    -0.05800
C2594       C  0.18464733  0.69971252  0.17194797    -0.05700
C2595       C  0.17560051  0.68737674  0.15463096    -0.23900
C2596       C  0.19052951  0.67688750  0.13931036     0.18300
C2597       C  0.21477012  0.67830542  0.14195590     0.15600
C2598       C  0.22363783  0.69061636  0.15924619    -0.18900
C2599       C  0.22991793  0.66795763  0.12691551    -0.20700
C2600       C  0.22123264  0.65739019  0.10869029    -0.13300
C2601       C  0.19723190  0.65668448  0.10522458     0.03400
C2602       C  0.18182545  0.66575686  0.12099655    -0.25400
H2603       H  0.17279183  0.70800814  0.18330866     0.08500
H2604       H  0.15696207  0.68641802  0.15299613     0.12100
H2605       H  0.24228605  0.69169115  0.16088119     0.12000
H2606       H  0.24853931  0.66867910  0.12887779     0.11800
H2607       H  0.23340346  0.65020945  0.09694109     0.12300
H2608       H  0.16327940  0.66528761  0.11843889     0.14200
C2609       C  0.09516865  0.70390750  0.34783243    -0.05800
C2610       C  0.10366458  0.68641147  0.33411310    -0.05700
C2611       C  0.12298994  0.69008134  0.32059238    -0.23900
C2612       C  0.13456265  0.71115314  0.32088808     0.18300
C2613       C  0.12679308  0.72850130  0.33534919     0.15600
C2614       C  0.10695018  0.72493172  0.34842233    -0.18900
C2615       C  0.13902339  0.74912317  0.33647985    -0.20700
C2616       C  0.15858415  0.75263472  0.32328404    -0.13300
C2617       C  0.16591270  0.73594846  0.30820737     0.03400
C2618       C  0.15380790  0.71516070  0.30709322    -0.25400
H2619       H  0.09489821  0.67010301  0.33335450     0.08500
H2620       H  0.12883037  0.67645244  0.30983734     0.12100
H2621       H  0.10074466  0.73844958  0.35915849     0.12000
H2622       H  0.13355036  0.76249068  0.34767275     0.11800
H2623       H  0.16787592  0.76859674  0.32463409     0.12300
H2624       H  0.15972599  0.70194580  0.29590809     0.14200
C2625       C  0.33982805  0.67509654  0.27628474    -0.05800
C2626       C  0.35401520  0.67707693  0.29446337    -0.05700
C2627       C  0.36965005  0.65915627  0.30001408    -0.23900
C2628       C  0.37136541  0.63915258  0.28734900     0.18300
C2629       C  0.35783534  0.63767788  0.26851187     0.15600
C2630       C  0.34221315  0.65555931  0.26317640    -0.18900
C2631       C  0.35950763  0.61800077  0.25562982    -0.20700
C2632       C  0.37381663  0.59947154  0.26171365    -0.13300
C2633       C  0.38675768  0.60016498  0.28085675     0.03400
C2634       C  0.38578301  0.62034720  0.29343024    -0.25400
H2635       H  0.35226014  0.69195542  0.30485493     0.08500
H2636       H  0.37993306  0.66067388  0.31447835     0.12100
H2637       H  0.33135606  0.65402809  0.24905824     0.12000
H2638       H  0.34934381  0.61672350  0.24105907     0.11800
H2639       H  0.37424464  0.58432077  0.25160434     0.12300
H2640       H  0.39579641  0.62126137  0.30812351     0.14200
C2641       C  0.30857613  0.78247467  0.33285372    -0.05800
C2642       C  0.32808153  0.79599735  0.32826753    -0.05700
C2643       C  0.33593394  0.81182729  0.34337497    -0.23900
C2644       C  0.32446884  0.81442816  0.36339858     0.18300
C2645       C  0.30568928  0.79994412  0.36857246     0.15600
C2646       C  0.29798556  0.78403586  0.35341130    -0.18900
C2647       C  0.29416039  0.80228807  0.38846671    -0.20700
C2648       C  0.30040195  0.81945553  0.40272726    -0.13300
C2649       C  0.31836965  0.83482300  0.39754392     0.03400
C2650       C  0.33079903  0.83177805  0.37796370    -0.25400
H2651       H  0.33655691  0.79526363  0.31253268     0.08500
H2652       H  0.35043731  0.82261660  0.33906824     0.12100
H2653       H  0.28303160  0.77364379  0.35726688     0.12000
H2654       H  0.27984340  0.79124458  0.39278069     0.11800
H2655       H  0.29059247  0.82095979  0.41773171     0.12300
H2656       H  0.34469402  0.84334908  0.37369840     0.14200
C2657       C  0.17406995  0.81496456  0.22894831    -0.05800
C2658       C  0.17018408  0.83237168  0.24424712    -0.05700
C2659       C  0.15469845  0.85052723  0.24015766    -0.23900
C2660       C  0.14314021  0.85196286  0.22040840     0.18300
C2661       C  0.14629316  0.83430720  0.20495508     0.15600
C2662       C  0.16158185  0.81555993  0.20946632    -0.18900
C2663       C  0.13485951  0.83638306  0.18502588    -0.20700
C2664       C  0.12130946  0.85614784  0.18022044    -0.13300
C2665       C  0.11880628  0.87408029  0.19533437     0.03400
C2666       C  0.12929143  0.87139141  0.21563942    -0.25400
H2667       H  0.17968692  0.83220073  0.25928421     0.08500
H2668       H  0.15243756  0.86392871  0.25214675     0.12100
H2669       H  0.16477535  0.80233126  0.19745835     0.12000
H2670       H  0.13692725  0.82306838  0.17293697     0.11800
H2671       H  0.11328617  0.85762733  0.16449043     0.12300
H2672       H  0.12740178  0.88484929  0.22762348     0.14200
C2673       C  0.05301031  0.01444267  0.39564903    -0.05800
C2674       C  0.04272407  0.00545184  0.37715977    -0.05700
C2675       C  0.05034497  0.01199932  0.35650656    -0.23900
C2676       C  0.06800672  0.02810223  0.35400536     0.18300
C2677       C  0.07840418  0.03743537  0.37248112     0.15600
C2678       C  0.07109685  0.03022495  0.39325019    -0.18900
C2679       C  0.09560911  0.05407306  0.36979263    -0.20700
C2680       C  0.10254010  0.06125444  0.34898561    -0.13300
C2681       C  0.09260204  0.05166770  0.33055387     0.03400
C2682       C  0.07527420  0.03512044  0.33328303    -0.25400
H2683       H  0.02870537  0.99336202  0.37872942     0.08500
H2684       H  0.04216739  0.00474763  0.34248716     0.12100
H2685       H  0.07879854  0.03751898  0.40750348     0.12000
H2686       H  0.10368639  0.06152682  0.38376352     0.11800
H2687       H  0.11600720  0.07391942  0.34730874     0.12300
H2688       H  0.06727712  0.02773682  0.31922040     0.14200
C2689       C  0.18882009  0.16466912  0.25326653    -0.05800
C2690       C  0.19285367  0.14523548  0.24032288    -0.05700
C2691       C  0.17890387  0.12588179  0.24267110    -0.23900
C2692       C  0.16125914  0.12539404  0.25854561     0.18300
C2693       C  0.15732489  0.14481934  0.27183936     0.15600
C2694       C  0.17079035  0.16450579  0.26878509    -0.18900
C2695       C  0.14040576  0.14400054  0.28832599    -0.20700
C2696       C  0.12788876  0.12391098  0.29199166    -0.13300
C2697       C  0.13157270  0.10450544  0.27885002     0.03400
C2698       C  0.14799166  0.10556991  0.26181695    -0.25400
H2699       H  0.20659004  0.14518450  0.22819090     0.08500
H2700       H  0.18220392  0.11113659  0.23236868     0.12100
H2701       H  0.16776109  0.17945006  0.27893001     0.12000
H2702       H  0.13722789  0.15870820  0.29870856     0.11800
H2703       H  0.11528219  0.12355130  0.30513732     0.12300
H2704       H  0.15113710  0.09064987  0.25168387     0.14200
C2705       C  0.09718381  0.95351176  0.21523734    -0.05800
C2706       C  0.09852876  0.94818559  0.23741171    -0.05700
C2707       C  0.09944415  0.96563477  0.25266776    -0.23900
C2708       C  0.09955983  0.98877743  0.24601642     0.18300
C2709       C  0.09832243  0.99453539  0.22375793     0.15600
C2710       C  0.09678230  0.97681262  0.20844836    -0.18900
C2711       C  0.09907614  0.01785017  0.21732689    -0.20700
C2712       C  0.10142207  0.03516312  0.23281282    -0.13300
C2713       C  0.10253966  0.02943263  0.25495332     0.03400
C2714       C  0.10132802  0.00617916  0.26136700    -0.25400
H2715       H  0.09867213  0.93041784  0.24301026     0.08500
H2716       H  0.10037649  0.96099702  0.26968974     0.12100
H2717       H  0.09591584  0.98107995  0.19133536     0.12000
H2718       H  0.09814467  0.02265639  0.20034927     0.11800
H2719       H  0.10215501  0.05300241  0.22752356     0.12300
H2720       H  0.10237721  0.00149109  0.27838313     0.14200
C2721       C  0.57241625  0.66139988  0.07747578    -0.05800
C2722       C  0.58106824  0.64098350  0.08713599    -0.05700
C2723       C  0.57466648  0.61939784  0.07947439    -0.23900
C2724       C  0.55995016  0.61779870  0.06162585     0.18300
C2725       C  0.55153577  0.63820135  0.05148212     0.15600
C2726       C  0.55751621  0.65983148  0.05966475    -0.18900
C2727       C  0.53739595  0.63661721  0.03324219    -0.20700
C2728       C  0.53163358  0.61506205  0.02510480    -0.13300
C2729       C  0.53953325  0.59459776  0.03524453     0.03400
C2730       C  0.55365704  0.59617610  0.05365051    -0.25400
H2731       H  0.59243647  0.64172268  0.10093262     0.08500
H2732       H  0.58133600  0.60394899  0.08744428     0.12100
H2733       H  0.55087748  0.67545834  0.05196072     0.12000
H2734       H  0.53085276  0.65207227  0.02519638     0.11800
H2735       H  0.52065698  0.61442667  0.01102617     0.12300
H2736       H  0.56000353  0.58059234  0.06163343     0.14200
C2737       C  0.62712857  0.71236088  0.11488090    -0.05800
C2738       C  0.64046281  0.69371836  0.12302612    -0.05700
C2739       C  0.65941023  0.69754193  0.13645390    -0.23900
C2740       C  0.66525648  0.72006803  0.14213822     0.18300
C2741       C  0.65262356  0.73895061  0.13325409     0.15600
C2742       C  0.63393986  0.73498881  0.11948710    -0.18900
C2743       C  0.65799322  0.76146824  0.13928722    -0.20700
C2744       C  0.67457808  0.76517406  0.15514480    -0.13300
C2745       C  0.68664691  0.74650116  0.16472279     0.03400
C2746       C  0.68256790  0.72400648  0.15748690    -0.25400
H2747       H  0.63567594  0.67614123  0.11977908     0.08500
H2748       H  0.66890034  0.68283983  0.14309791     0.12100
H2749       H  0.62402555  0.74959755  0.11317681     0.12000
H2750       H  0.64856383  0.77615368  0.13253116     0.11800
H2751       H  0.67750230  0.78261857  0.16042877     0.12300
H2752       H  0.69160542  0.70947475  0.16497962     0.14200
C2753       C  0.48679838  0.93923043  0.07601808    -0.05800
C2754       C  0.50460854  0.92615849  0.08576787    -0.05700
C2755       C  0.49960994  0.90614492  0.09745403    -0.23900
C2756       C  0.47674053  0.89857109  0.09911243     0.18300
C2757       C  0.45848547  0.91206175  0.09012749     0.15600
C2758       C  0.46361675  0.93260402  0.07887015    -0.18900
C2759       C  0.43566652  0.90406866  0.09158577    -0.20700
C2760       C  0.43114792  0.88256869  0.10118276    -0.13300
C2761       C  0.44939621  0.86873198  0.10931754     0.03400
C2762       C  0.47205907  0.87713891  0.10866769    -0.25400
H2763       H  0.52255228  0.93093919  0.08351038     0.08500
H2764       H  0.51376210  0.89600767  0.10430239     0.12100
H2765       H  0.44987638  0.94239849  0.07093386     0.12000
H2766       H  0.42144352  0.91410472  0.08474348     0.11800
H2767       H  0.41356289  0.87634785  0.10144503     0.12300
H2768       H  0.48622126  0.86664312  0.11506796     0.14200
C2769       C  0.40179648  0.81024028  0.14727849    -0.05800
C2770       C  0.37958421  0.81872243  0.14191595    -0.05700
C2771       C  0.35988787  0.81067989  0.15301964    -0.23900
C2772       C  0.36218133  0.79444083  0.16999177     0.18300
C2773       C  0.38460772  0.78678150  0.17611267     0.15600
C2774       C  0.40413640  0.79444723  0.16455942    -0.18900
C2775       C  0.38720139  0.77143822  0.19363905    -0.20700
C2776       C  0.36776363  0.76338022  0.20484917    -0.13300
C2777       C  0.34530337  0.77002390  0.19845728     0.03400
C2778       C  0.34258592  0.78567989  0.18097691    -0.25400
H2779       H  0.37742077  0.83098054  0.12870117     0.08500
H2780       H  0.34288697  0.81703115  0.14825017     0.12100
H2781       H  0.42126128  0.78813745  0.16905668     0.12000
H2782       H  0.40429910  0.76564753  0.19869164     0.11800
H2783       H  0.37027600  0.75153802  0.21834368     0.12300
H2784       H  0.32532590  0.79129531  0.17621384     0.14200
C2785       C  0.47704449  0.78831242  0.11452481    -0.05800
C2786       C  0.47055890  0.76514247  0.11318431    -0.05700
C2787       C  0.48674747  0.74800557  0.10732361    -0.23900
C2788       C  0.50990677  0.75359290  0.10311275     0.18300
C2789       C  0.51677356  0.77678807  0.10464633     0.15600
C2790       C  0.50025365  0.79404664  0.11006442    -0.18900
C2791       C  0.54012613  0.78221054  0.10113781    -0.20700
C2792       C  0.55658915  0.76474980  0.09683816    -0.13300
C2793       C  0.54996167  0.74160406  0.09545026     0.03400
C2794       C  0.52642692  0.73624599  0.09808384    -0.25400
H2795       H  0.45279453  0.76027036  0.11634224     0.08500
H2796       H  0.48118520  0.73031789  0.10631338     0.12100
H2797       H  0.50553685  0.81182758  0.11117462     0.12000
H2798       H  0.54576411  0.79986283  0.10227864     0.11800
H2799       H  0.57462796  0.76930810  0.09491221     0.12300
H2800       H  0.52114581  0.71843642  0.09736741     0.14200
C2801       C  0.04306192  0.65379764  0.39122741    -0.05800
C2802       C  0.05414158  0.63356888  0.38364077    -0.05700
C2803       C  0.05012140  0.61219239  0.39361593    -0.23900
C2804       C  0.03522472  0.61055237  0.41168853     0.18300
C2805       C  0.02393533  0.63069957  0.41955948     0.15600
C2806       C  0.02759039  0.65210216  0.40906766    -0.18900
C2807       C  0.00963182  0.62912397  0.43809368    -0.20700
C2808       C  0.00686520  0.60792109  0.44888774    -0.13300
C2809       C  0.01775570  0.58771682  0.44102365     0.03400
C2810       C  0.03175997  0.58917281  0.42222853    -0.25400
H2811       H  0.06598567  0.63425202  0.36990786     0.08500
H2812       H  0.05897825  0.59695802  0.38737431     0.12100
H2813       H  0.01897640  0.66751361  0.41523345     0.12000
H2814       H  0.00085394  0.64435377  0.44443967     0.11800
H2815       H  0.99596486  0.60723578  0.46328942     0.12300
H2816       H  0.04048665  0.57376109  0.41618377     0.14200
C2817       C  0.11548403  0.55380246  0.62738317    -0.05800
C2818       C  0.12059795  0.53170325  0.61923093    -0.05700
C2819       C  0.10759072  0.52260833  0.60259241    -0.23900
C2820       C  0.08903728  0.53536480  0.59383588     0.18300
C2821       C  0.08433843  0.55806085  0.60110184     0.15600
C2822       C  0.09777755  0.56727557  0.61773317    -0.18900
C2823       C  0.06577941  0.57076012  0.59208942    -0.20700
C2824       C  0.05191438  0.56097625  0.57626779    -0.13300
C2825       C  0.05611573  0.53820453  0.56943819     0.03400
C2826       C  0.07485348  0.52556993  0.57823318    -0.25400
H2827       H  0.13421801  0.52104632  0.62632474     0.08500
H2828       H  0.11158506  0.50528847  0.59706154     0.12100
H2829       H  0.09354726  0.58425007  0.62401735     0.12000
H2830       H  0.06187086  0.58817469  0.59739184     0.11800
H2831       H  0.03765539  0.57108466  0.56959899     0.12300
H2832       H  0.07851424  0.50813575  0.57279297     0.14200
C2833       C  0.07989970  0.41591119  0.45316484    -0.05800
C2834       C  0.08633764  0.41563361  0.43118428    -0.05700
C2835       C  0.10691931  0.40446557  0.42452219    -0.23900
C2836       C  0.12172695  0.39425698  0.43992309     0.18300
C2837       C  0.11474902  0.39376339  0.46198460     0.15600
C2838       C  0.09363104  0.40412751  0.46836320    -0.18900
C2839       C  0.12976120  0.38449506  0.47756820    -0.20700
C2840       C  0.15198704  0.37692470  0.47159502    -0.13300
C2841       C  0.15957000  0.37810734  0.44986322     0.03400
C2842       C  0.14399179  0.38601556  0.43392965    -0.25400
H2843       H  0.07610213  0.42516150  0.41938246     0.08500
H2844       H  0.11194579  0.40509724  0.40756074     0.12100
H2845       H  0.08896799  0.40498838  0.48542288     0.12000
H2846       H  0.12469307  0.38402176  0.49452883     0.11800
H2847       H  0.16350174  0.37067874  0.48418044     0.12300
H2848       H  0.14964920  0.38713536  0.41714771     0.14200
C2849       C  0.94905875  0.43715343  0.32916265    -0.05800
C2850       C  0.96831341  0.45163020  0.32764990    -0.05700
C2851       C  0.98142518  0.45634557  0.34585335    -0.23900
C2852       C  0.97546812  0.44685820  0.36605735     0.18300
C2853       C  0.95690337  0.43136773  0.36774337     0.15600
C2854       C  0.94390247  0.42643413  0.34921968    -0.18900
C2855       C  0.95112110  0.42191188  0.38811098    -0.20700
C2856       C  0.96286925  0.42863233  0.40670521    -0.13300
C2857       C  0.98051877  0.44497202  0.40523579     0.03400
C2858       C  0.98713889  0.45347651  0.38472541    -0.25400
H2859       H  0.97296886  0.45983216  0.31241112     0.08500
H2860       H  0.99578284  0.46804033  0.34424787     0.12100
H2861       H  0.92916840  0.41518761  0.35067052     0.12000
H2862       H  0.93701181  0.40993758  0.38976756     0.11800
H2863       H  0.95737854  0.42193534  0.42234910     0.12300
H2864       H  0.00085389  0.46595722  0.38339449     0.14200
C2865       C  0.98672185  0.40257149  0.54201584    -0.05800
C2866       C  0.99353723  0.38019172  0.53575448    -0.05700
C2867       C  0.98724417  0.36097312  0.54830553    -0.23900
C2868       C  0.97361544  0.36371672  0.56716280     0.18300
C2869       C  0.96566481  0.38600609  0.57303980     0.15600
C2870       C  0.97244334  0.40529781  0.56056458    -0.18900
C2871       C  0.95153225  0.38864233  0.59159070    -0.20700
C2872       C  0.94613296  0.36954923  0.60470638    -0.13300
C2873       C  0.95491697  0.34743988  0.59966699     0.03400
C2874       C  0.96829488  0.34465031  0.58051700    -0.25400
H2875       H  0.00447829  0.37763595  0.52155796     0.08500
H2876       H  0.99336829  0.34398943  0.54345099     0.12100
H2877       H  0.96679386  0.42245797  0.56537624     0.12000
H2878       H  0.94505769  0.40557137  0.59623157     0.11800
H2879       H  0.93580607  0.37225821  0.61926130     0.12300
H2880       H  0.97499629  0.32769171  0.57619925     0.14200
C2881       C  0.68528353  0.67805289  0.41360952    -0.05800
C2882       C  0.69861789  0.69806040  0.41489303    -0.05700
C2883       C  0.70103851  0.71284590  0.39705365    -0.23900
C2884       C  0.69043414  0.70775158  0.37744340     0.18300
C2885       C  0.67579180  0.68851861  0.37635585     0.15600
C2886       C  0.67296760  0.67400063  0.39457237    -0.18900
C2887       C  0.66549798  0.68323486  0.35663574    -0.20700
C2888       C  0.67109111  0.69570017  0.33784903    -0.13300
C2889       C  0.68677761  0.71396234  0.33845320     0.03400
C2890       C  0.69549496  0.72060633  0.35858792    -0.25400
H2891       H  0.70800585  0.70181835  0.42948546     0.08500
H2892       H  0.71215101  0.72761069  0.39828923     0.12100
H2893       H  0.66264967  0.65865814  0.39335809     0.12000
H2894       H  0.65405755  0.66871458  0.35549793     0.11800
H2895       H  0.66385667  0.69039890  0.32262726     0.12300
H2896       H  0.70762701  0.73460850  0.35934479     0.14200
C2897       C  0.58392261  0.56008217  0.45739762    -0.05800
C2898       C  0.58326859  0.57125521  0.43712346    -0.05700
C2899       C  0.60103589  0.58619451  0.43082095    -0.23900
C2900       C  0.61985153  0.58978694  0.44457823     0.18300
C2901       C  0.62110622  0.57742440  0.46440942     0.15600
C2902       C  0.60311988  0.56289474  0.47073325    -0.18900
C2903       C  0.64003723  0.58019297  0.47796158    -0.20700
C2904       C  0.65726867  0.59569260  0.47239026    -0.13300
C2905       C  0.65589497  0.60903740  0.45323864     0.03400
C2906       C  0.63718642  0.60575229  0.43917382    -0.25400
H2907       H  0.56853952  0.56924955  0.42664202     0.08500
H2908       H  0.59982859  0.59526854  0.41543500     0.12100
H2909       H  0.60379815  0.55406732  0.48630488     0.12000
H2910       H  0.64135540  0.57061827  0.49308484     0.11800
H2911       H  0.67143719  0.59761885  0.48352777     0.12300
H2912       H  0.63599949  0.61568042  0.42424342     0.14200
C2913       C  0.83713382  0.68559302  0.58401814    -0.05800
C2914       C  0.84928826  0.67744059  0.60225965    -0.05700
C2915       C  0.84456763  0.68655812  0.62279170    -0.23900
C2916       C  0.82766845  0.70408449  0.62548822     0.18300
C2917       C  0.81644760  0.71347407  0.60710492     0.15600
C2918       C  0.82128133  0.70424136  0.58652258    -0.18900
C2919       C  0.79986146  0.73129227  0.60973936    -0.20700
C2920       C  0.79362157  0.73897482  0.63046355    -0.13300
C2921       C  0.80370714  0.72889265  0.64900938     0.03400
C2922       C  0.82121349  0.71179223  0.64629129    -0.25400
H2923       H  0.86163050  0.66319481  0.60088484     0.08500
H2924       H  0.85356620  0.67933190  0.63667252     0.12100
H2925       H  0.81194965  0.71095199  0.57260593     0.12000
H2926       H  0.79124371  0.73887086  0.59580367     0.11800
H2927       H  0.78025436  0.75226626  0.63198684     0.12300
H2928       H  0.82945085  0.70408400  0.66037619     0.14200
C2929       C  0.87181585  0.62374186  0.53838439    -0.05800
C2930       C  0.86378041  0.60300726  0.52993666    -0.05700
C2931       C  0.87913082  0.58498741  0.52492117    -0.23900
C2932       C  0.90294695  0.58748449  0.52783371     0.18300
C2933       C  0.91141196  0.60818821  0.53635239     0.15600
C2934       C  0.89569110  0.62616390  0.54194601    -0.18900
C2935       C  0.93544042  0.61063162  0.53858964    -0.20700
C2936       C  0.95083943  0.59286374  0.53223654    -0.13300
C2937       C  0.94246691  0.57222664  0.52377196     0.03400
C2938       C  0.91839126  0.56968951  0.52187245    -0.25400
H2939       H  0.84546104  0.60074118  0.52712705     0.08500
H2940       H  0.87238914  0.56924217  0.51836729     0.12100
H2941       H  0.90202868  0.64221902  0.54820946     0.12000
H2942       H  0.94233704  0.62638030  0.54496976     0.11800
H2943       H  0.96929478  0.59532571  0.53388823     0.12300
H2944       H  0.91155141  0.55399691  0.51528322     0.14200
C2945       C  0.79995400  0.66230363  0.51695202    -0.05800
C2946       C  0.78904234  0.68332653  0.51137902    -0.05700
C2947       C  0.76949404  0.68370787  0.49820473    -0.23900
C2948       C  0.76020970  0.66301385  0.49097965     0.18300
C2949       C  0.77086359  0.64173736  0.49688092     0.15600
C2950       C  0.79093154  0.64155804  0.50944349    -0.18900
C2951       C  0.76102157  0.62101007  0.49044987    -0.20700
C2952       C  0.74073031  0.62136601  0.47831126    -0.13300
C2953       C  0.73035828  0.64244010  0.47194542     0.03400
C2954       C  0.74026726  0.66321979  0.47822571    -0.25400
H2955       H  0.79579013  0.69944640  0.51705428     0.08500
H2956       H  0.76144655  0.70014861  0.49392364     0.12100
H2957       H  0.79910784  0.62523439  0.51397904     0.12000
H2958       H  0.76889002  0.60455354  0.49496704     0.11800
H2959       H  0.73336337  0.60517570  0.47355250     0.12300
H2960       H  0.73215778  0.67953284  0.47357017     0.14200
C2961       C  0.67664095  0.19009322  0.22958915    -0.05800
C2962       C  0.67531385  0.17168749  0.24454611    -0.05700
C2963       C  0.65988856  0.15391652  0.24165285    -0.23900
C2964       C  0.64555138  0.15399335  0.22358507     0.18300
C2965       C  0.64592943  0.17274895  0.20875172     0.15600
C2966       C  0.66134327  0.19097785  0.21199450    -0.18900
C2967       C  0.63153380  0.17235676  0.19058189    -0.20700
C2968       C  0.61779260  0.15315368  0.18671512    -0.13300
C2969       C  0.61802177  0.13411078  0.20107343     0.03400
C2970       C  0.63151730  0.13508677  0.21980422    -0.25400
H2971       H  0.68667441  0.17078254  0.25839185     0.08500
H2972       H  0.65969462  0.13973710  0.25323054     0.12100
H2973       H  0.66229021  0.20506050  0.20035299     0.12000
H2974       H  0.63137780  0.18658471  0.17906505     0.11800
H2975       H  0.60734211  0.15303509  0.17227041     0.12300
H2976       H  0.63190818  0.12067262  0.23112862     0.14200
C2977       C  0.71250729  0.33916004  0.08960354    -0.05800
C2978       C  0.73613048  0.33430445  0.09375465    -0.05700
C2979       C  0.74293757  0.32049970  0.11121218    -0.23900
C2980       C  0.72639618  0.31120317  0.12531813     0.18300
C2981       C  0.70258160  0.31594717  0.12186920     0.15600
C2982       C  0.69569171  0.32992366  0.10395389    -0.18900
C2983       C  0.68628205  0.30668313  0.13653496    -0.20700
C2984       C  0.69358687  0.29350293  0.15458798    -0.13300
C2985       C  0.71734207  0.28897843  0.15820301     0.03400
C2986       C  0.73353233  0.29764242  0.14309334    -0.25400
H2987       H  0.74968574  0.34107504  0.08335364     0.08500
H2988       H  0.76127828  0.31715766  0.11370858     0.12100
H2989       H  0.67744174  0.33339872  0.10113300     0.12000
H2990       H  0.66790953  0.30999418  0.13429071     0.11800
H2991       H  0.68064890  0.28720353  0.16592477     0.12300
H2992       H  0.75193075  0.29462430  0.14556592     0.14200
C2993       C  0.66035550  0.28346457  0.29072367    -0.05800
C2994       C  0.63952627  0.27987296  0.27980459    -0.05700
C2995       C  0.61820964  0.28566153  0.28952180    -0.23900
C2996       C  0.61737111  0.29543900  0.31020012     0.18300
C2997       C  0.63821980  0.29970842  0.32111573     0.15600
C2998       C  0.65953526  0.29349849  0.31140696    -0.18900
C2999       C  0.63736653  0.31010038  0.34155953    -0.20700
C3000       C  0.61601119  0.31613764  0.35112559    -0.13300
C3001       C  0.59525981  0.31136883  0.34060617     0.03400
C3002       C  0.59603415  0.30100245  0.32015608    -0.25400
H3003       H  0.63968936  0.27214725  0.26390727     0.08500
H3004       H  0.60237554  0.28242478  0.28089049     0.12100
H3005       H  0.67549013  0.29661107  0.31991259     0.12000
H3006       H  0.65318934  0.31356579  0.35012153     0.11800
H3007       H  0.61565656  0.32407865  0.36693171     0.12300
H3008       H  0.58000181  0.29756516  0.31189096     0.14200
C3009       C  0.83563713  0.32936235  0.27934320    -0.05800
C3010       C  0.85765006  0.32116700  0.28588601    -0.05700
C3011       C  0.87503111  0.33659795  0.29135618    -0.23900
C3012       C  0.87076556  0.36051627  0.29030918     0.18300
C3013       C  0.84850799  0.36881657  0.28429625     0.15600
C3014       C  0.83120209  0.35330543  0.27901499    -0.18900
C3015       C  0.84400794  0.39258847  0.28297650    -0.20700
C3016       C  0.86167225  0.40806821  0.28651470    -0.13300
C3017       C  0.88406352  0.40015478  0.29183370     0.03400
C3018       C  0.88844458  0.37632669  0.29437954    -0.25400
H3019       H  0.86158764  0.30283496  0.28643142     0.08500
H3020       H  0.89192826  0.32983344  0.29597845     0.12100
H3021       H  0.81435585  0.36003207  0.27415868     0.12000
H3022       H  0.82699497  0.39921917  0.27854229     0.11800
H3023       H  0.85795986  0.42637057  0.28466513     0.12300
H3024       H  0.90575737  0.37014339  0.29834825     0.14200
C3025       C  0.71529593  0.18314101  0.66739599    -0.05800
C3026       C  0.70428340  0.16207239  0.67151629    -0.05700
C3027       C  0.69892088  0.14741810  0.65424766    -0.23900
C3028       C  0.70478261  0.15352682  0.63270543     0.18300
C3029       C  0.71555417  0.17481144  0.62872123     0.15600
C3030       C  0.72048760  0.18928549  0.64581352    -0.18900
C3031       C  0.72188342  0.18135613  0.60766926    -0.20700
C3032       C  0.71831845  0.16666579  0.59052804    -0.13300
C3033       C  0.70806183  0.14517763  0.59391690     0.03400
C3034       C  0.70077470  0.13877617  0.61508141    -0.25400
H3035       H  0.69986780  0.15696685  0.68795335     0.08500
H3036       H  0.69054505  0.13122435  0.65775308     0.12100
H3037       H  0.72908064  0.20533987  0.64211651     0.12000
H3038       H  0.73006506  0.19773203  0.60447635     0.11800
H3039       H  0.72379518  0.17215888  0.57447039     0.12300
H3040       H  0.69289462  0.12218627  0.61789272     0.14200
C3041       C  0.66841989  0.08466272  0.55272922    -0.05800
C3042       C  0.67059062  0.06773502  0.53662770    -0.05700
C3043       C  0.65149278  0.05536993  0.53025853    -0.23900
C3044       C  0.62980628  0.05965686  0.53986735     0.18300
C3045       C  0.62751758  0.07553284  0.55704463     0.15600
C3046       C  0.64695636  0.08791620  0.56349355    -0.18900
C3047       C  0.60560119  0.07942879  0.56669378    -0.20700
C3048       C  0.58607110  0.06848350  0.55869659    -0.13300
C3049       C  0.58828183  0.05379556  0.54085105     0.03400
C3050       C  0.61021864  0.04901178  0.53187538    -0.25400
H3051       H  0.68697455  0.06459951  0.52829346     0.08500
H3052       H  0.65353444  0.04303593  0.51727021     0.12100
H3053       H  0.64505528  0.10090557  0.57591925     0.12000
H3054       H  0.60346790  0.09141180  0.57994773     0.11800
H3055       H  0.56914915  0.07228640  0.56575180     0.12300
H3056       H  0.61189261  0.03746876  0.51819701     0.14200
C3057       C  0.91756563  0.04147270  0.45438718    -0.05800
C3058       C  0.89638260  0.03898189  0.46558620    -0.05700
C3059       C  0.87819595  0.05479454  0.46250970    -0.23900
C3060       C  0.88087951  0.07352551  0.44828069     0.18300
C3061       C  0.90170689  0.07581617  0.43622218     0.15600
C3062       C  0.91989183  0.05958413  0.43916504    -0.18900
C3063       C  0.90418825  0.09474021  0.42204784    -0.20700
C3064       C  0.88634735  0.11139981  0.42016575    -0.13300
C3065       C  0.86579035  0.10943985  0.43249392     0.03400
C3066       C  0.86319062  0.09026145  0.44636227    -0.25400
H3067       H  0.89410362  0.02513329  0.47728672     0.08500
H3068       H  0.86225701  0.05273993  0.47175429     0.12100
H3069       H  0.93620720  0.06179285  0.43054893     0.12000
H3070       H  0.92002960  0.09683220  0.41267114     0.11800
H3071       H  0.88881445  0.12601876  0.40938292     0.12300
H3072       H  0.84739672  0.08836694  0.45587189     0.14200
C3073       C  0.82592360  0.17467983  0.39515406    -0.05800
C3074       C  0.83819146  0.17020549  0.37576239    -0.05700
C3075       C  0.83434516  0.18382852  0.35728644    -0.23900
C3076       C  0.81811794  0.20214752  0.35782440     0.18300
C3077       C  0.80612050  0.20717797  0.37736403     0.15600
C3078       C  0.81019546  0.19354062  0.39589138    -0.18900
C3079       C  0.78963366  0.22525750  0.37785087    -0.20700
C3080       C  0.78430013  0.23754565  0.35891953    -0.13300
C3081       C  0.79562177  0.23224335  0.33920758     0.03400
C3082       C  0.81303288  0.21491307  0.33895444    -0.25400
H3083       H  0.85031644  0.15575053  0.37465907     0.08500
H3084       H  0.84365302  0.17967750  0.34243163     0.12100
H3085       H  0.80066151  0.19729520  0.41072617     0.12000
H3086       H  0.78032919  0.22941150  0.39270908     0.11800
H3087       H  0.77086690  0.25085640  0.35959830     0.12300
H3088       H  0.82173471  0.21049047  0.32384905     0.14200
C3089       C  0.79488741  0.14357408  0.46388410    -0.05800
C3090       C  0.78534523  0.16409538  0.47234420    -0.05700
C3091       C  0.76916248  0.16339142  0.48945834    -0.23900
C3092       C  0.76186285  0.14212618  0.49794613     0.18300
C3093       C  0.77059178  0.12144675  0.48869028     0.15600
C3094       C  0.78729292  0.12231261  0.47204383    -0.18900
C3095       C  0.76251195  0.10018231  0.49623253    -0.20700
C3096       C  0.74620165  0.09931808  0.51306415    -0.13300
C3097       C  0.73814250  0.11962310  0.52307404     0.03400
C3098       C  0.74598742  0.14107585  0.51543305    -0.25400
H3099       H  0.79091873  0.18064922  0.46613905     0.08500
H3100       H  0.76242529  0.17943812  0.49608571     0.12100
H3101       H  0.79427654  0.10640351  0.46528050     0.12000
H3102       H  0.76877297  0.08420814  0.48908484     0.11800
H3103       H  0.74016542  0.08266052  0.51857650     0.12300
H3104       H  0.73940679  0.15683531  0.52278016     0.14200
C3105       C  0.91168627  0.18584809  0.16450441    -0.05800
C3106       C  0.89003091  0.17646474  0.16015188    -0.05700
C3107       C  0.86985252  0.18585536  0.16969397    -0.23900
C3108       C  0.87112897  0.20455069  0.18389968     0.18300
C3109       C  0.89297152  0.21328759  0.18923944     0.15600
C3110       C  0.91301409  0.20395440  0.17947267    -0.18900
C3111       C  0.89438969  0.23143775  0.20402300    -0.20700
C3112       C  0.87423156  0.24107404  0.21326882    -0.13300
C3113       C  0.85243534  0.23310745  0.20737551     0.03400
C3114       C  0.85097030  0.21477210  0.19276293    -0.25400
H3115       H  0.88861004  0.16251796  0.14874975     0.08500
H3116       H  0.85322377  0.17876828  0.16568126     0.12100
H3117       H  0.92968538  0.21111758  0.18327928     0.12000
H3118       H  0.91106299  0.23818367  0.20839502     0.11800
H3119       H  0.87560213  0.25502598  0.22468294     0.12300
H3120       H  0.83412336  0.20826703  0.18856787     0.14200
C3121       C  0.03441404  0.43136760  0.06768836    -0.05800
C3122       C  0.04122549  0.43855122  0.08831862    -0.05700
C3123       C  0.04757004  0.42231780  0.10432281    -0.23900
C3124       C  0.04743669  0.39859932  0.09992803     0.18300
C3125       C  0.04101746  0.39136284  0.07906277     0.15600
C3126       C  0.03456652  0.40765280  0.06322647    -0.18900
C3127       C  0.04077097  0.36786747  0.07434587    -0.20700
C3128       C  0.04616360  0.35157518  0.09027260    -0.13300
C3129       C  0.05201319  0.35828901  0.11131357     0.03400
C3130       C  0.05306845  0.38194667  0.11601735    -0.25400
H3131       H  0.04123458  0.45671091  0.09222332     0.08500
H3132       H  0.05238003  0.42831029  0.12017501     0.12100
H3133       H  0.02955663  0.40176676  0.04737246     0.12000
H3134       H  0.03597149  0.36203974  0.05842319     0.11800
H3135       H  0.04528346  0.33348637  0.08620389     0.12300
H3136       H  0.05723712  0.38730336  0.13225170     0.14200
C3137       C  0.08846759  0.32095407  0.17656792    -0.05800
C3138       C  0.08344150  0.30702209  0.19477162    -0.05700
C3139       C  0.10021968  0.30196284  0.21022543    -0.23900
C3140       C  0.12255140  0.31063544  0.20786171     0.18300
C3141       C  0.12768561  0.32573191  0.19037430     0.15600
C3142       C  0.11048711  0.33100739  0.17483535    -0.18900
C3143       C  0.15025443  0.33425748  0.18826342    -0.20700
C3144       C  0.16772434  0.32687233  0.20256348    -0.13300
C3145       C  0.16295798  0.31079064  0.21919558     0.03400
C3146       C  0.14008221  0.30339377  0.22211357    -0.25400
H3147       H  0.06658245  0.29930787  0.19673844     0.08500
H3148       H  0.09593990  0.29053600  0.22362929     0.12100
H3149       H  0.11464492  0.34170372  0.16087506     0.12000
H3150       H  0.15463042  0.34588425  0.17505020     0.11800
H3151       H  0.18526480  0.33265405  0.19978392     0.12300
H3152       H  0.13616350  0.29100315  0.23485737     0.14200
C3153       C  0.02604032  0.28383378  0.13768133    -0.05800
C3154       C  0.00512877  0.28671710  0.12641811    -0.05700
C3155       C  0.99048391  0.26818107  0.12367004    -0.23900
C3156       C  0.99670331  0.24632507  0.13178727     0.18300
C3157       C  0.01800859  0.24299563  0.14259338     0.15600
C3158       C  0.03240045  0.26187002  0.14576134    -0.18900
C3159       C  0.02439049  0.22087882  0.15019165    -0.20700
C3160       C  0.00941066  0.20242775  0.14775912    -0.13300
C3161       C  0.98782171  0.20601629  0.13800860     0.03400
C3162       C  0.98168949  0.22786147  0.12974490    -0.25400
H3163       H  0.99989778  0.30344441  0.11997502     0.08500
H3164       H  0.97427063  0.27095663  0.11525020     0.12100
H3165       H  0.04863259  0.25940665  0.15423067     0.12000
H3166       H  0.04068961  0.21797773  0.15842382     0.11800
H3167       H  0.01409729  0.18568837  0.15452305     0.12300
H3168       H  0.96487355  0.23059068  0.12234649     0.14200
C3169       C  0.14724399  0.08556863  0.92521151    -0.05800
C3170       C  0.13970155  0.06972376  0.90984609    -0.05700
C3171       C  0.11779723  0.05964824  0.91208293    -0.23900
C3172       C  0.10300686  0.06553619  0.92955621     0.18300
C3173       C  0.11009815  0.08257240  0.94415444     0.15600
C3174       C  0.13205914  0.09227069  0.94198915    -0.18900
C3175       C  0.09547350  0.08921014  0.96123576    -0.20700
C3176       C  0.07452317  0.07826099  0.96469667    -0.13300
C3177       C  0.06763740  0.06007969  0.95135946     0.03400
C3178       C  0.08175076  0.05424477  0.93327270    -0.25400
H3179       H  0.15110610  0.06442662  0.89666496     0.08500
H3180       H  0.11268552  0.04687540  0.90048682     0.12100
H3181       H  0.13755272  0.10481045  0.95368587     0.12000
H3182       H  0.10054751  0.10246246  0.97238000     0.11800
H3183       H  0.06418872  0.08352372  0.97861155     0.12300
H3184       H  0.07669172  0.04050332  0.92266613     0.14200
C3185       C  0.07200530  0.92317355  0.14574048    -0.05800
C3186       C  0.07965172  0.91200793  0.12682848    -0.05700
C3187       C  0.06915758  0.91707657  0.10703390    -0.23900
C3188       C  0.05069514  0.93315499  0.10598056     0.18300
C3189       C  0.04218878  0.94363191  0.12512479     0.15600
C3190       C  0.05297401  0.93865478  0.14485477    -0.18900
C3191       C  0.02348000  0.95941240  0.12411585    -0.20700
C3192       C  0.01398192  0.96562260  0.10414620    -0.13300
C3193       C  0.02317213  0.95625083  0.08490387     0.03400
C3194       C  0.04111567  0.93949815  0.08602738    -0.25400
H3195       H  0.09428533  0.90000982  0.12722247     0.08500
H3196       H  0.07579125  0.90880930  0.09250148     0.12100
H3197       H  0.04678109  0.94708456  0.15948063     0.12000
H3198       H  0.01662992  0.96742879  0.13868990     0.11800
H3199       H  0.00013303  0.97851043  0.10370150     0.12300
H3200       H  0.04813862  0.93189882  0.07130914     0.14200
C3201       C  0.95863136  0.12901034  0.12146984    -0.05800
C3202       C  0.94030215  0.11345250  0.12001965    -0.05700
C3203       C  0.94300667  0.09306914  0.10810750    -0.23900
C3204       C  0.96398583  0.08800214  0.09719062     0.18300
C3205       C  0.98265258  0.10325166  0.09907990     0.15600
C3206       C  0.97997107  0.12333225  0.11136402    -0.18900
C3207       C  0.00347063  0.09876791  0.08787652    -0.20700
C3208       C  0.00542776  0.08003741  0.07399031    -0.13300
C3209       C  0.98679723  0.06507883  0.07130331     0.03400
C3210       C  0.96632513  0.06865955  0.08359428    -0.25400
H3211       H  0.92368264  0.11727327  0.12765768     0.08500
H3212       H  0.92846171  0.08163726  0.10689042     0.12100
H3213       H  0.99440085  0.13494761  0.11237589     0.12000
H3214       H  0.01795776  0.11027038  0.08918305     0.11800
H3215       H  0.02141640  0.07759564  0.06481814     0.12300
H3216       H  0.95179959  0.05734973  0.08151617     0.14200
C3217       C  0.92683559  0.92646461  0.04040091    -0.05800
C3218       C  0.92038483  0.92681176  0.06246138    -0.05700
C3219       C  0.90313781  0.91208219  0.07055295    -0.23900
C3220       C  0.89163968  0.89716217  0.05662040     0.18300
C3221       C  0.89833304  0.89656425  0.03453119     0.15600
C3222       C  0.91598682  0.91077154  0.02675006    -0.18900
C3223       C  0.88662815  0.88247718  0.02020536    -0.20700
C3224       C  0.86774301  0.86981320  0.02740435    -0.13300
C3225       C  0.86053907  0.87037000  0.04918979     0.03400
C3226       C  0.87296147  0.88359004  0.06398989    -0.25400
H3227       H  0.92850771  0.93858961  0.07339758     0.08500
H3228       H  0.89833970  0.91284171  0.08755537     0.12100
H3229       H  0.92053983  0.91024318  0.00966760     0.12000
H3230       H  0.89156434  0.88187076  0.00322090     0.11800
H3231       H  0.85845092  0.85973693  0.01578601     0.12300
H3232       H  0.86731337  0.88430695  0.08078390     0.14200
C3233       C  0.95640596  0.03103865  0.90089481    -0.05800
C3234       C  0.96569519  0.02089710  0.88207294    -0.05700
C3235       C  0.95565865  0.02540879  0.86194460    -0.23900
C3236       C  0.93637226  0.04042726  0.86022507     0.18300
C3237       C  0.92731642  0.05137866  0.87889294     0.15600
C3238       C  0.93728775  0.04652273  0.89910829    -0.18900
C3239       C  0.90834966  0.06683150  0.87700506    -0.20700
C3240       C  0.89841117  0.07131696  0.85677416    -0.13300
C3241       C  0.90702470  0.06013521  0.83817127     0.03400
C3242       C  0.92602666  0.04464631  0.84011085    -0.25400
H3243       H  0.98027087  0.00886932  0.88299340     0.08500
H3244       H  0.96286783  0.01697679  0.84772814     0.12100
H3245       H  0.93000130  0.05463568  0.91347101     0.12000
H3246       H  0.90121450  0.07544411  0.89115791     0.11800
H3247       H  0.88378320  0.08326962  0.85573905     0.12300
H3248       H  0.93300136  0.03600806  0.82589701     0.14200
C3249       C  0.01197544  0.92252945  0.92189202    -0.05800
C3250       C  0.99587317  0.90537166  0.91746653    -0.05700
C3251       C  0.00306415  0.88431887  0.90865528    -0.23900
C3252       C  0.02660157  0.87981852  0.90427235     0.18300
C3253       C  0.04292662  0.89726622  0.90750597     0.15600
C3254       C  0.03547071  0.91870160  0.91607875    -0.18900
C3255       C  0.06650030  0.89248798  0.90307218    -0.20700
C3256       C  0.07386117  0.87044580  0.89631934    -0.13300
C3257       C  0.05781509  0.85271782  0.89395839     0.03400
C3258       C  0.03409661  0.85782319  0.89752023    -0.25400
H3259       H  0.97772226  0.90788432  0.92173227     0.08500
H3260       H  0.99029757  0.87119125  0.90610867     0.12100
H3261       H  0.04811461  0.93166758  0.91964319     0.12000
H3262       H  0.07932136  0.90561622  0.90535093     0.11800
H3263       H  0.09220113  0.86709386  0.89359368     0.12300
H3264       H  0.02139931  0.84449996  0.89552889     0.14200
loop_ 
_geom_bond_atom_site_label_1 
_geom_bond_atom_site_label_2 
_geom_bond_distance 
_geom_bond_site_symmetry_2 
_ccdc_geom_bond_type 
Zr1           O2   2.439   1_565  S
Zr1           O3   2.424       .  S
Zr1           O4   2.462       .  S
Zr1           O7   2.457   1_565  S
Zr1           O9   2.388       .  S
Zr1          O10   2.386   1_665  S
Zr1          O11   2.404       .  S
Zr1          O12   2.404   1_565  S
O2           H58   0.990   1_545  S
O2           H66   0.990   1_545  S
O3           C23   1.283   1_655  A
O4           C25   1.290       .  A
O5          Zr15   2.412       .  S
O5           C24   1.283   1_455  A
O6          Zr14   2.419   1_554  S
O6           C25   1.283       .  A
O7           C24   1.289       .  A
O8          Zr16   2.414       .  S
O8           C23   1.281       .  A
O9          Zr14   2.391   1_554  S
O9          Zr16   2.373   1_655  S
O10         Zr15   2.384       .  S
O10         Zr16   2.369   1_545  S
O10          H45   0.966       .  S
O11         Zr14   2.397   1_554  S
O11         Zr31   2.386   1_564  S
O11          H48   0.966       .  S
O12         Zr15   2.387   1_655  S
O12         Zr31   2.387   1_554  S
Zr13         O38   2.442       .  S
Zr13         O32   2.463   1_465  S
Zr13         O40   2.468   1_565  S
Zr13         O28   2.470       .  S
Zr13         O19   2.414   1_565  S
Zr13         O20   2.421       .  S
Zr13         O21   2.390   1_455  S
Zr13         O22   2.391   1_465  S
Zr14         O33   2.436       .  S
Zr14         O26   2.435       .  S
Zr14         O27   2.424       .  S
Zr14         O20   2.401   1_655  S
Zr14         O21   2.392       .  S
Zr15         O17   2.434   1_454  S
Zr15         O39   2.439       .  S
Zr15         O41   2.409   1_554  S
Zr15         O19   2.387   1_554  S
Zr15         O22   2.387   1_454  S
Zr16         O42   2.438       .  S
Zr16         O43   2.435   1_554  S
Zr16         O18   2.437       .  S
Zr16         O19   2.399   1_564  S
Zr16         O20   2.383   1_554  S
O17          H54   0.990   1_556  S
O18          H49   0.990       .  S
O18          H63   0.990       .  S
O20          H46   0.964       .  S
O21         Zr31   2.387   1_565  S
O22         Zr31   2.383       .  S
O22          H47   0.966       .  S
C23        C3193   1.475       .  S
C24        C3209   1.482       .  S
C25        C3217   1.491       .  S
O26          H62   0.990   1_556  S
O27          C29   1.284   1_655  A
O28          C29   1.289       .  A
C29        C3249   1.485       .  S
O30         Zr31   2.435       .  S
O30          H59   0.990   1_556  S
Zr31         O34   2.436   1_545  S
Zr31         O35   2.439       .  S
Zr31         O36   2.393       .  S
O32          C37   1.290       .  A
O33          H50   0.990       .  S
O33          H65   0.990       .  S
O34          H51   0.990       .  S
O35          H55   0.990       .  S
O35          H64   0.990       .  S
O36          C37   1.277       .  A
C37        C3233   1.482       .  S
O38          H57   0.991       .  S
O38          H61   0.990       .  S
O39          H53   0.990       .  S
O39          H60   0.990       .  S
O40          C44   1.289       .  A
O41          C44   1.281       .  A
O42          H52   0.989   1_565  S
O43          H56   0.990       .  S
C44        C3177   1.494       .  S
C67        C3129   1.481       .  S
C67          N68   1.355       .  A
C67          N72   1.369       .  A
N68          C69   1.349       .  A
C69        C3153   1.476       .  S
C69          N70   1.352       .  A
N70          C71   1.361       .  A
C71        C3137   1.487       .  S
C71          N72   1.370       .  A
C73        C3201   1.489       .  S
C73          N74   1.364       .  A
C73          N78   1.368       .  A
N74          C75   1.354       .  A
C75        C3161   1.462       .  S
C75          N76   1.347       .  A
N76          C77   1.351       .  A
C77        C3105   1.479       .  S
C77          N78   1.365       .  A
C79        C3073   1.483       .  S
C79          N80   1.362       .  A
C79          N84   1.363       .  A
N80          C81   1.357       .  A
C81        C3089   1.475       .  S
C81          N82   1.355       .  A
N82          C83   1.357       .  A
C83        C3065   1.483       .  S
C83          N84   1.360       .  A
C85        C3033   1.481       .  S
C85          N86   1.363       .  A
C85          N90   1.364       .  A
N86          C87   1.363       .  A
C87        C3041   1.478       .  S
C87          N88   1.357       .  A
N88          C89   1.350       .  A
C89        C3097   1.476       .  S
C89          N90   1.354       .  A
Zr91         O92   2.443       .  S
Zr91         O93   2.461       .  S
Zr91         O94   2.471       .  S
Zr91         O97   2.444       .  S
Zr91         O99   2.384       .  S
Zr91        O100   2.389       .  S
Zr91        O101   2.415       .  S
Zr91        O102   2.414       .  S
O92         H148   0.990       .  S
O92         H156   0.991       .  S
O93         C113   1.288       .  A
O94         C115   1.290       .  A
O95        Zr105   2.413       .  S
O95         C114   1.282       .  A
O96        Zr104   2.432       .  S
O96         C115   1.286       .  A
O97         C114   1.287       .  A
O98        Zr106   2.398       .  S
O98         C113   1.279       .  A
O99        Zr104   2.394       .  S
O99        Zr106   2.388       .  S
O100       Zr105   2.386       .  S
O100       Zr106   2.376       .  S
O100        H135   0.966       .  S
O101       Zr104   2.399       .  S
O101       Zr121   2.390       .  S
O101        H138   0.964       .  S
O102       Zr105   2.389       .  S
O102       Zr121   2.394       .  S
Zr103       O128   2.441       .  S
Zr103       O122   2.443       .  S
Zr103       O130   2.456       .  S
Zr103       O118   2.447       .  S
Zr103       O109   2.402       .  S
Zr103       O110   2.409       .  S
Zr103       O111   2.387       .  S
Zr103       O112   2.384       .  S
Zr104       O123   2.437       .  S
Zr104       O116   2.434       .  S
Zr104       O117   2.425       .  S
Zr104       O110   2.397       .  S
Zr104       O111   2.402       .  S
Zr105       O107   2.435       .  S
Zr105       O129   2.437       .  S
Zr105       O131   2.411       .  S
Zr105       O109   2.394       .  S
Zr105       O112   2.389       .  S
Zr106       O132   2.435       .  S
Zr106       O133   2.437       .  S
Zr106       O108   2.438       .  S
Zr106       O109   2.391       .  S
Zr106       O110   2.375       .  S
O107        H144   0.990       .  S
O108        H139   0.990       .  S
O108        H153   0.990       .  S
O110        H136   0.964       .  S
O111       Zr121   2.382       .  S
O112       Zr121   2.371       .  S
O112        H137   0.966       .  S
C113       C2961   1.479       .  S
C114       C2993   1.480       .  S
C115       C2985   1.497       .  S
O116        H152   0.990       .  S
O117        C119   1.284       .  A
O118        C119   1.287       .  A
C119       C3113   1.470       .  S
O120       Zr121   2.435       .  S
O120        H149   0.990       .  S
Zr121       O124   2.435       .  S
Zr121       O125   2.438       .  S
Zr121       O126   2.421       .  S
O122        C127   1.284       .  A
O123        H140   0.990       .  S
O123        H155   0.990       .  S
O124        H141   0.990       .  S
O125        H145   0.990       .  S
O125        H154   0.990       .  S
O126        C127   1.283       .  A
C127       C3009   1.490       .  S
O128        H147   0.990       .  S
O128        H151   0.990       .  S
O129        H143   0.990       .  S
O129        H150   0.990       .  S
O130        C134   1.288       .  A
O131        C134   1.281       .  A
O132        H142   0.990       .  S
O133        H146   0.990       .  S
C134       C3081   1.481       .  S
C157       C2913   1.488       .  S
C157        N158   1.362       .  A
C157        N162   1.367       .  A
N158        C159   1.357       .  A
C159       C2945   1.472       .  S
C159        N160   1.352       .  A
N160        C161   1.355       .  A
C161       C2929   1.477       .  S
C161        N162   1.362       .  A
C163       C2905   1.486       .  S
C163        N164   1.365       .  A
C163        N168   1.360       .  A
N164        C165   1.366       .  A
C165       C2881   1.483       .  S
C165        N166   1.357       .  A
N166        C167   1.353       .  A
C167       C2953   1.473       .  S
C167        N168   1.353       .  A
Zr169       O170   2.441   1_455  S
Zr169       O171   2.447       .  S
Zr169       O172   2.459   1_455  S
Zr169       O175   2.465   1_455  S
Zr169       O177   2.390       .  S
Zr169       O178   2.389       .  S
Zr169       O179   2.414   1_455  S
Zr169       O180   2.395   1_455  S
O170        H226   0.990   1_655  S
O170        H234   0.990       .  S
O171        C191   1.283       .  A
O172        C193   1.288       .  A
O173       Zr183   2.438       .  S
O173        C192   1.286   1_455  A
O174       Zr182   2.424   1_655  S
O174        C193   1.284       .  A
O175        C192   1.290       .  A
O176       Zr184   2.404       .  S
O176        C191   1.277       .  A
O177       Zr182   2.398       .  S
O177       Zr184   2.375       .  S
O178       Zr183   2.398       .  S
O178       Zr184   2.384       .  S
O178        H213   0.966       .  S
O179       Zr182   2.405   1_655  S
O179       Zr199   2.389       .  S
O179        H216   0.965       .  S
O180       Zr183   2.386   1_655  S
O180       Zr199   2.382       .  S
Zr181       O206   2.442       .  S
Zr181       O200   2.439   1_455  S
Zr181       O208   2.448       .  S
Zr181       O196   2.451       .  S
Zr181       O187   2.401       .  S
Zr181       O188   2.407       .  S
Zr181       O189   2.379   1_455  S
Zr181       O190   2.388   1_455  S
Zr182       O201   2.436   1_455  S
Zr182       O194   2.435       .  S
Zr182       O195   2.448       .  S
Zr182       O188   2.396       .  S
Zr182       O189   2.391   1_455  S
Zr183       O185   2.436   1_455  S
Zr183       O207   2.438       .  S
Zr183       O209   2.436       .  S
Zr183       O187   2.391       .  S
Zr183       O190   2.396   1_455  S
Zr184       O210   2.437       .  S
Zr184       O211   2.436       .  S
Zr184       O186   2.436       .  S
Zr184       O187   2.382       .  S
Zr184       O188   2.394       .  S
O185        H222   0.990   1_655  S
O186        H217   0.990       .  S
O186        H231   0.990       .  S
O188        H214   0.966       .  S
O189       Zr199   2.379       .  S
O190       Zr199   2.381       .  S
O190        H215   0.965       .  S
C191       C2833   1.463       .  S
C192       C2865   1.489       .  S
C193       C2857   1.482       .  S
O194        H230   0.990       .  S
O195        C197   1.287       .  A
O196        C197   1.288       .  A
C197       C2809   1.489       .  S
O198       Zr199   2.439       .  S
O198        H227   0.990       .  S
Zr199       O202   2.439       .  S
Zr199       O203   2.439       .  S
Zr199       O204   2.415       .  S
O200        C205   1.285       .  A
O201        H218   0.990       .  S
O201        H233   0.990       .  S
O202        H219   0.990       .  S
O203        H223   0.990       .  S
O203        H232   0.990       .  S
O204        C205   1.282       .  A
C205       C2937   1.484       .  S
O206        H225   0.990       .  S
O206        H229   0.990       .  S
O207        H221   0.990       .  S
O207        H228   0.990       .  S
O208        C212   1.286       .  A
O209        C212   1.286       .  A
O210        H220   0.990       .  S
O211        H224   0.990       .  S
C212       C2825   1.482       .  S
C235       C2769   1.481       .  S
C235        N236   1.360       .  A
C235        N240   1.363       .  A
N236        C237   1.358       .  A
C237       C2785   1.484       .  S
C237        N238   1.356       .  A
N238        C239   1.360       .  A
C239       C2761   1.479       .  S
C239        N240   1.363       .  A
C241       C2721   1.486       .  S
C241        N242   1.362       .  A
C241        N246   1.366       .  A
N242        C243   1.360       .  A
C243       C2793   1.482       .  S
C243        N244   1.356       .  A
N244        C245   1.357       .  A
C245       C2737   1.489       .  S
C245        N246   1.364       .  A
C247       C2697   1.482       .  S
C247        N248   1.363       .  A
C247        N252   1.365       .  A
N248        C249   1.359       .  A
C249       C2713   1.479       .  S
C249        N250   1.354       .  A
N250        C251   1.354       .  A
C251       C2681   1.482       .  S
C251        N252   1.360       .  A
C253       C3185   1.471       .  S
C253        N254   1.359       .  A
C253        N258   1.362       .  A
N254        C255   1.354       .  A
C255       C2705   1.477       .  S
C255        N256   1.357       .  A
N256        C257   1.360       .  A
C257       C2665   1.487       .  S
C257        N258   1.360       .  A
Zr259       O260   2.442       .  S
Zr259       O261   2.455       .  S
Zr259       O262   2.475       .  S
Zr259       O265   2.456       .  S
Zr259       O267   2.384       .  S
Zr259       O268   2.395       .  S
Zr259       O269   2.416       .  S
Zr259       O270   2.404       .  S
O260        H316   0.990       .  S
O260        H324   0.990       .  S
O261        C281   1.285       .  A
O262        C283   1.290       .  A
O263       Zr273   2.418       .  S
O263        C282   1.284       .  A
O264       Zr272   2.426       .  S
O264        C283   1.283       .  A
O265        C282   1.289       .  A
O266       Zr274   2.406       .  S
O266        C281   1.279       .  A
O267       Zr272   2.401       .  S
O267       Zr274   2.379       .  S
O268       Zr273   2.398       .  S
O268       Zr274   2.375       .  S
O268        H303   0.966       .  S
O269       Zr272   2.402       .  S
O269       Zr289   2.394       .  S
O269        H306   0.965       .  S
O270       Zr273   2.395       .  S
O270       Zr289   2.387       .  S
Zr271       O296   2.443       .  S
Zr271       O290   2.458       .  S
Zr271       O298   2.452       .  S
Zr271       O286   2.443       .  S
Zr271       O277   2.404       .  S
Zr271       O278   2.413       .  S
Zr271       O279   2.382       .  S
Zr271       O280   2.386       .  S
Zr272       O291   2.436       .  S
Zr272       O284   2.435       .  S
Zr272       O285   2.433       .  S
Zr272       O278   2.399       .  S
Zr272       O279   2.395       .  S
Zr273       O275   2.436       .  S
Zr273       O297   2.440       .  S
Zr273       O299   2.436       .  S
Zr273       O277   2.385       .  S
Zr273       O280   2.398       .  S
Zr274       O300   2.438       .  S
Zr274       O301   2.435       .  S
Zr274       O276   2.436       .  S
Zr274       O277   2.386       .  S
Zr274       O278   2.387       .  S
O275        H312   0.990       .  S
O276        H307   0.990       .  S
O276        H321   0.990       .  S
O278        H304   0.964       .  S
O279       Zr289   2.381       .  S
O280       Zr289   2.387       .  S
O280        H305   0.966       .  S
C281       C2657   1.475       .  S
C282       C2593   1.485       .  S
C283       C2617   1.484       .  S
O284        H320   0.990       .  S
O285        C287   1.286       .  A
O286        C287   1.286       .  A
C287       C2641   1.485       .  S
O288       Zr289   2.439       .  S
O288        H317   0.990       .  S
Zr289       O292   2.439       .  S
Zr289       O293   2.440       .  S
Zr289       O294   2.409       .  S
O290        C295   1.286       .  A
O291        H308   0.990       .  S
O291        H323   0.990       .  S
O292        H309   0.990       .  S
O293        H313   0.990       .  S
O293        H322   0.990       .  S
O294        C295   1.279       .  A
C295       C2625   1.476       .  S
O296        H315   0.990       .  S
O296        H319   0.991       .  S
O297        H311   0.990       .  S
O297        H318   0.990       .  S
O298        C302   1.287       .  A
O299        C302   1.284       .  A
O300        H310   0.990       .  S
O301        H314   0.990       .  S
C302       C2777   1.483       .  S
Zr325       O326   2.440       .  S
Zr325       O327   2.446       .  S
Zr325       O328   2.449       .  S
Zr325       O331   2.445       .  S
Zr325       O333   2.381       .  S
Zr325       O334   2.383       .  S
Zr325       O335   2.413       .  S
Zr325       O336   2.403       .  S
O326        H382   0.990       .  S
O326        H390   0.990       .  S
O327        C347   1.285       .  A
O328        C349   1.287       .  A
O329       Zr339   2.412       .  S
O329        C348   1.282       .  A
O330       Zr338   2.419       .  S
O330        C349   1.282       .  A
O331        C348   1.287       .  A
O332       Zr340   2.419       .  S
O332        C347   1.281       .  A
O333       Zr338   2.399       .  S
O333       Zr340   2.373       .  S
O334       Zr339   2.390       .  S
O334       Zr340   2.371       .  S
O334        H369   0.966       .  S
O335       Zr338   2.403       .  S
O335       Zr355   2.392       .  S
O335        H372   0.966       .  S
O336       Zr339   2.384       .  S
O336       Zr355   2.389       .  S
Zr337       O362   2.442       .  S
Zr337       O356   2.457       .  S
Zr337       O364   2.451       .  S
Zr337       O352   2.466       .  S
Zr337       O343   2.417       .  S
Zr337       O344   2.417       .  S
Zr337       O345   2.385       .  S
Zr337       O346   2.389       .  S
Zr338       O357   2.441       .  S
Zr338       O350   2.434       .  S
Zr338       O351   2.436       .  S
Zr338       O344   2.398       .  S
Zr338       O345   2.392       .  S
Zr339       O341   2.436       .  S
Zr339       O363   2.438       .  S
Zr339       O365   2.401       .  S
Zr339       O343   2.389       .  S
Zr339       O346   2.389       .  S
Zr340       O366   2.435       .  S
Zr340       O367   2.435       .  S
Zr340       O342   2.441       .  S
Zr340       O343   2.400       .  S
Zr340       O344   2.382       .  S
O341        H378   0.990       .  S
O342        H373   0.990       .  S
O342        H387   0.989       .  S
O344        H370   0.962       .  S
O345       Zr355   2.387       .  S
O346       Zr355   2.380       .  S
O346        H371   0.966       .  S
C347       C2529   1.483       .  S
C348       C2561   1.481       .  S
C349       C2689   1.473       .  S
O350        H386   0.990       .  S
O351        C353   1.286       .  A
O352        C353   1.289       .  A
C353       C3145   1.486       .  S
O354       Zr355   2.436       .  S
O354        H383   0.990       .  S
Zr355       O358   2.436       .  S
Zr355       O359   2.440       .  S
Zr355       O360   2.403       .  S
O356        C361   1.285       .  A
O357        H374   0.990       .  S
O357        H389   0.990       .  S
O358        H375   0.990       .  S
O359        H379   0.990       .  S
O359        H388   0.990       .  S
O360        C361   1.278       .  A
C361       C2577   1.472       .  S
O362        H381   0.990       .  S
O362        H385   0.990       .  S
O363        H377   0.990       .  S
O363        H384   0.990       .  S
O364        C368   1.287       .  A
O365        C368   1.280       .  A
O366        H376   0.990       .  S
O367        H380   0.990       .  S
C368       C2545   1.471       .  S
C391       C2497   1.477       .  S
C391        N392   1.356       .  A
C391        N396   1.363       .  A
N392        C393   1.354       .  A
C393       C2513   1.481       .  S
C393        N394   1.358       .  A
N394        C395   1.361       .  A
C395       C2481   1.490       .  S
C395        N396   1.366       .  A
C397       C2465   1.490       .  S
C397        N398   1.361       .  A
C397        N402   1.368       .  A
N398        C399   1.354       .  A
C399       C2521   1.476       .  S
C399        N400   1.350       .  A
N400        C401   1.356       .  A
C401       C2449   1.488       .  S
C401        N402   1.366       .  A
Zr403       O404   2.443       .  S
Zr403       O405   2.436       .  S
Zr403       O406   2.448   1_545  S
Zr403       O409   2.431       .  S
Zr403       O411   2.383       .  S
Zr403       O412   2.387       .  S
Zr403       O413   2.413   1_545  S
Zr403       O414   2.397       .  S
O404        H460   0.990       .  S
O404        H468   0.990   1_545  S
O405        C425   1.281       .  A
O406        C427   1.285       .  A
O407       Zr417   2.431       .  S
O407        C426   1.284       .  A
O408       Zr416   2.429       .  S
O408        C427   1.283       .  A
O409        C426   1.285       .  A
O410       Zr418   2.406       .  S
O410        C425   1.279       .  A
O411       Zr416   2.392   1_545  S
O411       Zr418   2.381       .  S
O412       Zr417   2.395       .  S
O412       Zr418   2.380       .  S
O412        H447   0.966       .  S
O413       Zr416   2.401       .  S
O413       Zr433   2.392       .  S
O413        H450   0.965       .  S
O414       Zr417   2.384       .  S
O414       Zr433   2.386   1_545  S
Zr415       O440   2.442       .  S
Zr415       O434   2.447   1_545  S
Zr415       O442   2.448       .  S
Zr415       O430   2.465   1_545  S
Zr415       O421   2.404       .  S
Zr415       O422   2.408       .  S
Zr415       O423   2.381   1_545  S
Zr415       O424   2.393       .  S
Zr416       O435   2.434       .  S
Zr416       O428   2.438       .  S
Zr416       O429   2.424       .  S
Zr416       O422   2.397   1_565  S
Zr416       O423   2.400       .  S
Zr417       O419   2.436       .  S
Zr417       O441   2.440       .  S
Zr417       O443   2.418       .  S
Zr417       O421   2.392       .  S
Zr417       O424   2.398       .  S
Zr418       O444   2.435       .  S
Zr418       O445   2.436       .  S
Zr418       O420   2.437       .  S
Zr418       O421   2.383       .  S
Zr418       O422   2.386       .  S
O419        H456   0.990       .  S
O420        H451   0.990       .  S
O420        H465   0.990       .  S
O422        H448   0.965       .  S
O423       Zr433   2.382       .  S
O424       Zr433   2.379   1_545  S
O424        H449   0.966       .  S
C425       C3049   1.465       .  S
C426       C2409   1.481       .  S
C427       C2505   1.475       .  S
O428        H464   0.990       .  S
O429        C431   1.284       .  A
O430        C431   1.290       .  A
C431       C2417   1.493       .  S
O432       Zr433   2.435       .  S
O432        H461   0.990       .  S
Zr433       O436   2.435       .  S
Zr433       O437   2.438       .  S
Zr433       O438   2.414       .  S
O434        C439   1.284       .  A
O435        H452   0.990       .  S
O435        H467   0.990       .  S
O436        H453   0.990       .  S
O437        H457   0.990       .  S
O437        H466   0.990   1_565  S
O438        C439   1.280       .  A
C439       C2385   1.469       .  S
O440        H459   0.991       .  S
O440        H463   0.990       .  S
O441        H455   0.990       .  S
O441        H462   0.990       .  S
O442        C446   1.288       .  A
O443        C446   1.284       .  A
O444        H454   0.990       .  S
O445        H458   0.990       .  S
C446       C2433   1.483       .  S
C469       C2337   1.490       .  S
C469        N470   1.356       .  A
C469        N474   1.366       .  A
N470        C471   1.351       .  A
C471       C2369   1.483       .  S
C471        N472   1.355       .  A
N472        C473   1.364       .  A
C473       C2353   1.486       .  S
C473        N474   1.369       .  A
C475       C2585   1.486       .  S
C475        N476   1.363       .  A
C475        N480   1.363       .  A
N476        C477   1.361       .  A
C477       C2841   1.482       .  S
C477        N478   1.356       .  A
N478        C479   1.355       .  A
C479       C2377   1.485       .  S
C479        N480   1.358       .  A
C481       C2305   1.484       .  S
C481        N482   1.363       .  A
C481        N486   1.361       .  A
N482        C483   1.358       .  A
C483       C2329   1.472       .  S
C483        N484   1.356       .  A
N484        C485   1.355       .  A
C485       C3001   1.471       .  S
C485        N486   1.358       .  A
C487       C2441   1.478       .  S
C487        N488   1.359       .  A
C487        N492   1.361       .  A
N488        C489   1.356       .  A
C489       C2321   1.476       .  S
C489        N490   1.355       .  A
N490        C491   1.360       .  A
C491       C2569   1.481       .  S
C491        N492   1.362       .  A
C493       C2273   1.467       .  S
C493        N494   1.359       .  A
C493        N498   1.359       .  A
N494        C495   1.359       .  A
C495       C2257   1.474       .  S
C495        N496   1.357       .  A
N496        C497   1.354       .  A
C497       C2289   1.476       .  S
C497        N498   1.355       .  A
C499       C2241   1.492       .  S
C499        N500   1.366       .  A
C499        N504   1.358       .  A
N500        C501   1.367       .  A
C501       C2233   1.491       .  S
C501        N502   1.360       .  A
N502        C503   1.356       .  A
C503       C2297   1.476       .  S
C503        N504   1.355       .  A
Zr505       O506   2.440       .  S
Zr505       O507   2.427       .  S
Zr505       O508   2.447       .  S
Zr505       O511   2.442       .  S
Zr505       O513   2.378       .  S
Zr505       O514   2.387       .  S
Zr505       O515   2.408       .  S
Zr505       O516   2.404       .  S
O506        H562   0.991       .  S
O506        H570   0.990       .  S
O507        C527   1.283       .  A
O508        C529   1.286       .  A
O509       Zr519   2.416       .  S
O509        C528   1.282       .  A
O510       Zr518   2.415       .  S
O510        C529   1.282       .  A
O511        C528   1.285       .  A
O512       Zr520   2.431       .  S
O512        C527   1.284       .  A
O513       Zr518   2.386       .  S
O513       Zr520   2.373       .  S
O514       Zr519   2.391       .  S
O514       Zr520   2.374       .  S
O514        H549   0.966       .  S
O515       Zr518   2.393       .  S
O515       Zr535   2.389       .  S
O515        H552   0.965       .  S
O516       Zr519   2.385       .  S
O516       Zr535   2.390       .  S
Zr517       O542   2.442       .  S
Zr517       O536   2.460       .  S
Zr517       O544   2.458       .  S
Zr517       O532   2.477       .  S
Zr517       O523   2.413       .  S
Zr517       O524   2.415       .  S
Zr517       O525   2.386       .  S
Zr517       O526   2.390       .  S
Zr518       O537   2.436       .  S
Zr518       O530   2.435       .  S
Zr518       O531   2.401       .  S
Zr518       O524   2.399       .  S
Zr518       O525   2.390       .  S
Zr519       O521   2.437       .  S
Zr519       O543   2.436       .  S
Zr519       O545   2.413       .  S
Zr519       O523   2.394       .  S
Zr519       O526   2.389       .  S
Zr520       O546   2.435       .  S
Zr520       O547   2.435       .  S
Zr520       O522   2.437       .  S
Zr520       O523   2.399       .  S
Zr520       O524   2.400       .  S
O521        H558   0.990       .  S
O522        H553   0.990       .  S
O522        H567   0.990       .  S
O524        H550   0.966       .  S
O525       Zr535   2.380       .  S
O526       Zr535   2.378       .  S
O526        H551   0.966       .  S
C527       C2209   1.485       .  S
C528       C2897   1.473       .  S
C529       C2313   1.478       .  S
O530        H566   0.990       .  S
O531        C533   1.280       .  A
O532        C533   1.290       .  A
C533       C2361   1.492       .  S
O534       Zr535   2.439       .  S
O534        H563   0.990       .  S
Zr535       O538   2.437       .  S
Zr535       O539   2.440       .  S
Zr535       O540   2.405       .  S
O536        C541   1.288       .  A
O537        H554   0.990       .  S
O537        H569   0.990       .  S
O538        H555   0.990       .  S
O539        H559   0.990       .  S
O539        H568   0.990       .  S
O540        C541   1.279       .  A
C541       C2249   1.478       .  S
O542        H561   0.990       .  S
O542        H565   0.990       .  S
O543        H557   0.990       .  S
O543        H564   0.990       .  S
O544        C548   1.288       .  A
O545        C548   1.282       .  A
O546        H556   0.990       .  S
O547        H560   0.990       .  S
C548       C2473   1.485       .  S
C571       C2537   1.493       .  S
C571        N572   1.367       .  A
C571        N576   1.368       .  A
N572        C573   1.359       .  A
C573       C2193   1.486       .  S
C573        N574   1.353       .  A
N574        C575   1.357       .  A
C575       C2177   1.487       .  S
C575        N576   1.364       .  A
C577       C2161   1.489       .  S
C577        N578   1.363       .  A
C577        N582   1.362       .  A
N578        C579   1.362       .  A
C579       C3169   1.482       .  S
C579        N580   1.362       .  A
N580        C581   1.358       .  A
C581       C2201   1.493       .  S
C581        N582   1.358       .  A
C583       C2121   1.489       .  S
C583        N584   1.359       .  A
C583        N588   1.366       .  A
N584        C585   1.354       .  A
C585       C2145   1.469       .  S
C585        N586   1.349       .  A
N586        C587   1.355       .  A
C587       C2129   1.476       .  S
C587        N588   1.365       .  A
C589       C2817   1.480       .  S
C589        N590   1.359       .  A
C589        N594   1.367       .  A
N590        C591   1.352       .  A
C591       C2153   1.470       .  S
C591        N592   1.351       .  A
N592        C593   1.354       .  A
C593       C2097   1.475       .  S
C593        N594   1.365       .  A
Zr595       O596   2.442       .  S
Zr595       O597   2.457       .  S
Zr595       O598   2.450       .  S
Zr595       O601   2.442       .  S
Zr595       O603   2.380       .  S
Zr595       O604   2.389       .  S
Zr595       O605   2.414       .  S
Zr595       O606   2.408       .  S
O596        H652   0.990       .  S
O596        H660   0.991       .  S
O597        C617   1.286       .  A
O598        C619   1.285       .  A
O599       Zr609   2.406       .  S
O599        C618   1.280       .  A
O600       Zr608   2.438       .  S
O600        C619   1.286       .  A
O601        C618   1.286       .  A
O602       Zr610   2.412       .  S
O602        C617   1.281       .  A
O603       Zr608   2.387       .  S
O603       Zr610   2.378       .  S
O604       Zr609   2.395       .  S
O604       Zr610   2.379       .  S
O604        H639   0.966       .  S
O605       Zr608   2.399       .  S
O605       Zr625   2.387       .  S
O605        H642   0.965       .  S
O606       Zr609   2.393       .  S
O606       Zr625   2.395       .  S
Zr607       O632   2.441       .  S
Zr607       O626   2.454       .  S
Zr607       O634   2.466       .  S
Zr607       O622   2.455       .  S
Zr607       O613   2.403       .  S
Zr607       O614   2.417       .  S
Zr607       O615   2.390       .  S
Zr607       O616   2.382       .  S
Zr608       O627   2.437       .  S
Zr608       O620   2.434       .  S
Zr608       O621   2.413       .  S
Zr608       O614   2.403       .  S
Zr608       O615   2.406       .  S
Zr609       O611   2.436       .  S
Zr609       O633   2.437       .  S
Zr609       O635   2.422       .  S
Zr609       O613   2.384       .  S
Zr609       O616   2.389       .  S
Zr610       O636   2.435       .  S
Zr610       O637   2.436       .  S
Zr610       O612   2.439       .  S
Zr610       O613   2.396       .  S
Zr610       O614   2.387       .  S
O611        H648   0.990       .  S
O612        H643   0.990       .  S
O612        H657   0.990       .  S
O614        H640   0.965       .  S
O615       Zr625   2.375       .  S
O616       Zr625   2.380       .  S
O616        H641   0.966       .  S
C617       C2345   1.477       .  S
C618       C2137   1.475       .  S
C619       C2089   1.483       .  S
O620        H656   0.990       .  S
O621        C623   1.282       .  A
O622        C623   1.288       .  A
C623       C2073   1.474       .  S
O624       Zr625   2.436       .  S
O624        H653   0.990       .  S
Zr625       O628   2.439       .  S
Zr625       O629   2.441       .  S
Zr625       O630   2.412       .  S
O626        C631   1.285       .  A
O627        H644   0.990       .  S
O627        H659   0.990       .  S
O628        H645   0.990       .  S
O629        H649   0.990       .  S
O629        H658   0.990       .  S
O630        C631   1.279       .  A
C631       C2169   1.478       .  S
O632        H651   0.990       .  S
O632        H655   0.990       .  S
O633        H647   0.990       .  S
O633        H654   0.990       .  S
O634        C638   1.290       .  A
O635        C638   1.284       .  A
O636        H646   0.990       .  S
O637        H650   0.990       .  S
C638       C2057   1.494       .  S
Zr661       O662   2.441       .  S
Zr661       O663   2.435       .  S
Zr661       O664   2.455   1_545  S
Zr661       O667   2.453       .  S
Zr661       O669   2.387   1_545  S
Zr661       O670   2.388       .  S
Zr661       O671   2.410   1_545  S
Zr661       O672   2.397       .  S
O662        H718   0.990       .  S
O662        H726   0.991       .  S
O663        C683   1.284       .  A
O664        C685   1.286       .  A
O665       Zr675   2.421   1_554  S
O665        C684   1.285       .  A
O666       Zr674   2.412       .  S
O666        C685   1.281       .  A
O667        C684   1.287       .  A
O668       Zr676   2.429       .  S
O668        C683   1.283       .  A
O669       Zr674   2.397       .  S
O669       Zr676   2.380   1_565  S
O670       Zr675   2.391   1_554  S
O670       Zr676   2.376       .  S
O670        H705   0.966       .  S
O671       Zr674   2.400       .  S
O671       Zr691   2.385   1_554  S
O671        H708   0.965       .  S
O672       Zr675   2.388   1_554  S
O672       Zr691   2.384   1_544  S
Zr673       O698   2.443   1_565  S
Zr673       O692   2.459       .  S
Zr673       O700   2.434   1_565  S
Zr673       O688   2.454       .  S
Zr673       O679   2.411   1_565  S
Zr673       O680   2.417       .  S
Zr673       O681   2.377       .  S
Zr673       O682   2.385   1_565  S
Zr674       O693   2.436       .  S
Zr674       O686   2.435       .  S
Zr674       O687   2.423   1_554  S
Zr674       O680   2.395   1_554  S
Zr674       O681   2.398   1_554  S
Zr675       O677   2.434       .  S
Zr675       O699   2.439       .  S
Zr675       O701   2.435       .  S
Zr675       O679   2.384       .  S
Zr675       O682   2.397       .  S
Zr676       O702   2.435       .  S
Zr676       O703   2.436   1_554  S
Zr676       O678   2.439       .  S
Zr676       O679   2.396   1_554  S
Zr676       O680   2.403   1_544  S
O677        H714   0.990       .  S
O678        H709   0.990       .  S
O678        H723   0.990   1_545  S
O680        H706   0.965       .  S
O681       Zr691   2.384       .  S
O682       Zr691   2.385   1_545  S
O682        H707   0.966       .  S
C683       C1993   1.484       .  S
C684       C2185   1.488       .  S
C685       C2753   1.469       .  S
O686        H722   0.990       .  S
O687        C689   1.283       .  A
O688        C689   1.286       .  A
C689       C2001   1.486       .  S
O690       Zr691   2.436   1_554  S
O690        H719   0.990       .  S
Zr691       O694   2.438       .  S
Zr691       O695   2.439   1_565  S
Zr691       O696   2.407       .  S
O692        C697   1.288       .  A
O693        H710   0.990   1_554  S
O693        H725   0.990       .  S
O694        H711   0.990       .  S
O695        H715   0.990       .  S
O695        H724   0.990       .  S
O696        C697   1.278       .  A
C697       C2017   1.489       .  S
O698        H717   0.990   1_545  S
O698        H721   0.990   1_545  S
O699        H713   0.990       .  S
O699        H720   0.990       .  S
O700        C704   1.284       .  A
O701        C704   1.286       .  A
O702        H712   0.990       .  S
O703        H716   0.990       .  S
C704       C2041   1.482       .  S
C727       C3017   1.475       .  S
C727        N728   1.362       .  A
C727        N732   1.358       .  A
N728        C729   1.365       .  A
C729       C2849   1.488       .  S
C729        N730   1.363       .  A
N730        C731   1.356       .  A
C731       C1969   1.471       .  S
C731        N732   1.353       .  A
C733       C1961   1.496       .  S
C733        N734   1.365       .  A
C733        N738   1.363       .  A
N734        C735   1.365       .  A
C735       C1937   1.487       .  S
C735        N736   1.358       .  A
N736        C737   1.356       .  A
C737       C1977   1.486       .  S
C737        N738   1.360       .  A
C739       C2969   1.487       .  S
C739        N740   1.362       .  A
C739        N744   1.362       .  A
N740        C741   1.361       .  A
C741       C1985   1.478       .  S
C741        N742   1.359       .  A
N742        C743   1.355       .  A
C743       C1921   1.484       .  S
C743        N744   1.358       .  A
C745       C1905   1.493       .  S
C745        N746   1.369       .  A
C745        N750   1.364       .  A
N746        C747   1.368       .  A
C747       C2425   1.492       .  S
C747        N748   1.359       .  A
N748        C749   1.353       .  A
C749       C1929   1.480       .  S
C749        N750   1.355       .  A
C751       C2609   1.487       .  S
C751        N752   1.363       .  A
C751        N756   1.359       .  A
N752        C753   1.365       .  A
C753       C2801   1.493       .  S
C753        N754   1.361       .  A
N754        C755   1.362       .  A
C755       C1897   1.486       .  S
C755        N756   1.360       .  A
C757       C1873   1.488       .  S
C757        N758   1.359       .  A
C757        N762   1.363       .  A
N758        C759   1.358       .  A
C759       C1889   1.483       .  S
C759        N760   1.358       .  A
N760        C761   1.360       .  A
C761       C1857   1.482       .  S
C761        N762   1.363       .  A
C763       C1833   1.477       .  S
C763        N764   1.366       .  A
C763        N768   1.357       .  A
N764        C765   1.365       .  A
C765       C3225   1.479       .  S
C765        N766   1.361       .  A
N766        C767   1.355       .  A
C767       C1849   1.474       .  S
C767        N768   1.352       .  A
C769       C1809   1.490       .  S
C769        N770   1.368       .  A
C769        N774   1.357       .  A
N770        C771   1.368       .  A
C771       C2009   1.485       .  S
C771        N772   1.359       .  A
N772        C773   1.354       .  A
C773       C1841   1.473       .  S
C773        N774   1.353       .  A
Zr775       O776   2.442       .  S
Zr775       O777   2.464       .  S
Zr775       O778   2.454       .  S
Zr775       O781   2.463       .  S
Zr775       O783   2.386       .  S
Zr775       O784   2.385       .  S
Zr775       O785   2.420       .  S
Zr775       O786   2.409       .  S
O776        H832   0.990       .  S
O776        H840   0.991       .  S
O777        C797   1.290       .  A
O778        C799   1.286       .  A
O779       Zr789   2.426       .  S
O779        C798   1.285       .  A
O780       Zr788   2.432       .  S
O780        C799   1.284       .  A
O781        C798   1.289       .  A
O782       Zr790   2.403       .  S
O782        C797   1.279       .  A
O783       Zr788   2.393       .  S
O783       Zr790   2.380       .  S
O784       Zr789   2.391       .  S
O784       Zr790   2.381       .  S
O784        H819   0.966       .  S
O785       Zr788   2.396       .  S
O785       Zr805   2.397       .  S
O785        H822   0.965       .  S
O786       Zr789   2.386       .  S
O786       Zr805   2.396       .  S
Zr787       O812   2.442       .  S
Zr787       O806   2.445       .  S
Zr787       O814   2.458       .  S
Zr787       O802   2.468       .  S
Zr787       O793   2.399       .  S
Zr787       O794   2.412       .  S
Zr787       O795   2.390       .  S
Zr787       O796   2.393       .  S
Zr788       O807   2.437       .  S
Zr788       O800   2.435       .  S
Zr788       O801   2.421       .  S
Zr788       O794   2.399       .  S
Zr788       O795   2.401       .  S
Zr789       O791   2.435       .  S
Zr789       O813   2.441       .  S
Zr789       O815   2.424       .  S
Zr789       O793   2.386       .  S
Zr789       O796   2.392       .  S
Zr790       O816   2.436       .  S
Zr790       O817   2.435       .  S
Zr790       O792   2.438       .  S
Zr790       O793   2.381       .  S
Zr790       O794   2.395       .  S
O791        H828   0.990       .  S
O792        H823   0.990       .  S
O792        H837   0.990       .  S
O794        H820   0.965       .  S
O795       Zr805   2.381       .  S
O796       Zr805   2.380       .  S
O796        H821   0.966       .  S
C797       C1825   1.488       .  S
C798       C1953   1.491       .  S
C799       C2745   1.481       .  S
O800        H836   0.990       .  S
O801        C803   1.284       .  A
O802        C803   1.289       .  A
C803       C1913   1.493       .  S
O804       Zr805   2.436       .  S
O804        H833   0.990       .  S
Zr805       O808   2.436       .  S
Zr805       O809   2.438       .  S
Zr805       O810   2.425       .  S
O806        C811   1.285       .  A
O807        H824   0.990       .  S
O807        H839   0.990       .  S
O808        H825   0.990       .  S
O809        H829   0.990       .  S
O809        H838   0.990       .  S
O810        C811   1.282       .  A
C811       C2889   1.486       .  S
O812        H831   0.991       .  S
O812        H835   0.990       .  S
O813        H827   0.990       .  S
O813        H834   0.990       .  S
O814        C818   1.289       .  A
O815        C818   1.284       .  A
O816        H826   0.990       .  S
O817        H830   0.990       .  S
C818       C1881   1.481       .  S
C841       C2217   1.479       .  S
C841        N842   1.361       .  A
C841        N846   1.361       .  A
N842        C843   1.359       .  A
C843       C2633   1.485       .  S
C843        N844   1.358       .  A
N844        C845   1.356       .  A
C845       C1801   1.479       .  S
C845        N846   1.359       .  A
C847       C2553   1.473       .  S
C847        N848   1.358       .  A
C847        N852   1.359       .  A
N848        C849   1.357       .  A
C849       C1793   1.476       .  S
C849        N850   1.358       .  A
N850        C851   1.358       .  A
C851       C1777   1.464       .  S
C851        N852   1.356       .  A
Zr853       O854   2.441       .  S
Zr853       O855   2.454   1_556  S
Zr853       O856   2.470       .  S
Zr853       O859   2.450       .  S
Zr853       O861   2.383   1_556  S
Zr853       O862   2.392   1_556  S
Zr853       O863   2.414       .  S
Zr853       O864   2.412       .  S
O854        H910   0.990       .  S
O854        H918   0.990       .  S
O855        C875   1.287       .  A
O856        C877   1.290       .  A
O857       Zr867   2.405       .  S
O857        C876   1.280       .  A
O858       Zr866   2.430   1_556  S
O858        C877   1.285       .  A
O859        C876   1.287       .  A
O860       Zr868   2.414       .  S
O860        C875   1.280       .  A
O861       Zr866   2.396       .  S
O861       Zr868   2.383       .  S
O862       Zr867   2.400   1_554  S
O862       Zr868   2.377       .  S
O862        H897   0.966       .  S
O863       Zr866   2.396   1_556  S
O863       Zr883   2.382       .  S
O863        H900   0.965       .  S
O864       Zr867   2.392       .  S
O864       Zr883   2.391       .  S
Zr865       O890   2.441       .  S
Zr865       O884   2.464   1_554  S
Zr865       O892   2.466       .  S
Zr865       O880   2.447       .  S
Zr865       O871   2.397       .  S
Zr865       O872   2.421       .  S
Zr865       O873   2.390   1_554  S
Zr865       O874   2.387   1_554  S
Zr866       O885   2.437   1_554  S
Zr866       O878   2.434       .  S
Zr866       O879   2.420       .  S
Zr866       O872   2.402       .  S
Zr866       O873   2.393   1_554  S
Zr867       O869   2.439       .  S
Zr867       O891   2.438   1_556  S
Zr867       O893   2.428   1_556  S
Zr867       O871   2.378   1_556  S
Zr867       O874   2.390       .  S
Zr868       O894   2.435       .  S
Zr868       O895   2.436       .  S
Zr868       O870   2.437       .  S
Zr868       O871   2.389       .  S
Zr868       O872   2.390       .  S
O869        H906   0.990       .  S
O870        H901   0.990       .  S
O870        H915   0.990       .  S
O872        H898   0.965       .  S
O873       Zr883   2.378       .  S
O874       Zr883   2.389       .  S
O874        H899   0.966       .  S
C875       C2729   1.489       .  S
C876       C2281   1.482       .  S
C877       C1737   1.497       .  S
O878        H914   0.990       .  S
O879        C881   1.283       .  A
O880        C881   1.286       .  A
C881       C1785   1.483       .  S
O882       Zr883   2.437       .  S
O882        H911   0.990       .  S
Zr883       O886   2.436       .  S
Zr883       O887   2.439       .  S
Zr883       O888   2.400       .  S
O884        C889   1.288       .  A
O885        H902   0.990   1_556  S
O885        H917   0.990       .  S
O886        H903   0.990       .  S
O887        H907   0.990       .  S
O887        H916   0.990       .  S
O888        C889   1.278       .  A
C889       C1761   1.479       .  S
O890        H909   0.991       .  S
O890        H913   0.990       .  S
O891        H905   0.990   1_554  S
O891        H912   0.990       .  S
O892        C896   1.289       .  A
O893        C896   1.284       .  A
O894        H904   0.990       .  S
O895        H908   0.990       .  S
C896       C1753   1.487       .  S
Zr919       O920   2.442       .  S
Zr919       O921   2.463   1_545  S
Zr919       O922   2.434   1_655  S
Zr919       O925   2.438       .  S
Zr919       O927   2.381   1_645  S
Zr919       O928   2.380   1_545  S
Zr919       O929   2.416   1_655  S
Zr919       O930   2.400       .  S
O920        H976   0.990       .  S
O920        H984   0.991       .  S
O921        C941   1.288       .  A
O922        C943   1.283       .  A
O923       Zr933   2.421       .  S
O923        C942   1.283       .  A
O924       Zr932   2.430   1_545  S
O924        C943   1.283       .  A
O925        C942   1.285       .  A
O926       Zr934   2.410   1_655  S
O926        C941   1.279       .  A
O927       Zr932   2.399       .  S
O927       Zr934   2.378       .  S
O928       Zr933   2.388   1_565  S
O928       Zr934   2.383   1_655  S
O928        H963   0.966       .  S
O929       Zr932   2.399   1_545  S
O929       Zr949   2.402       .  S
O929        H966   0.966       .  S
O930       Zr933   2.377       .  S
O930       Zr949   2.391   1_655  S
Zr931       O956   2.441       .  S
Zr931       O950   2.458   1_565  S
Zr931       O958   2.442   1_455  S
Zr931       O946   2.453       .  S
Zr931       O937   2.402   1_455  S
Zr931       O938   2.415       .  S
Zr931       O939   2.381   1_565  S
Zr931       O940   2.387   1_465  S
Zr932       O951   2.437   1_565  S
Zr932       O944   2.434       .  S
Zr932       O945   2.427       .  S
Zr932       O938   2.400       .  S
Zr932       O939   2.395   1_565  S
Zr933       O935   2.436       .  S
Zr933       O957   2.440   1_545  S
Zr933       O959   2.401   1_545  S
Zr933       O937   2.388   1_545  S
Zr933       O940   2.400       .  S
Zr934       O960   2.436   1_455  S
Zr934       O961   2.436       .  S
Zr934       O936   2.437       .  S
Zr934       O937   2.382   1_455  S
Zr934       O938   2.396       .  S
O935        H972   0.990       .  S
O936        H967   0.990       .  S
O936        H981   0.990       .  S
O938        H964   0.965       .  S
O939       Zr949   2.374       .  S
O940       Zr949   2.383   1_655  S
O940        H965   0.966       .  S
C941       C1865   1.472       .  S
C942       C3057   1.479       .  S
C943       C2673   1.473       .  S
O944        H980   0.990       .  S
O945        C947   1.285       .  A
O946        C947   1.287       .  A
C947       C1705   1.489       .  S
O948       Zr949   2.435       .  S
O948        H977   0.990   1_455  S
Zr949       O952   2.434       .  S
Zr949       O953   2.441   1_455  S
Zr949       O954   2.421       .  S
O950        C955   1.287       .  A
O951        H968   0.990       .  S
O951        H983   0.990       .  S
O952        H969   0.990       .  S
O953        H973   0.990       .  S
O953        H982   0.989       .  S
O954        C955   1.282       .  A
C955       C1681   1.497       .  S
O956        H975   0.991       .  S
O956        H979   0.990       .  S
O957        H971   0.990       .  S
O957        H978   0.990       .  S
O958        C962   1.286       .  A
O959        C962   1.279       .  A
O960        H970   0.990       .  S
O961        H974   0.990       .  S
C962       C1721   1.464       .  S
C985       C2649   1.491       .  S
C985        N986   1.357       .  A
C985        N990   1.370       .  A
N986        C987   1.349       .  A
C987       C1665   1.473       .  S
C987        N988   1.350       .  A
N988        C989   1.358       .  A
C989       C2393   1.486       .  S
C989        N990   1.371       .  A
C991       C1649   1.482       .  S
C991        N992   1.362       .  A
C991        N996   1.358       .  A
N992        C993   1.359       .  A
C993       C1697   1.488       .  S
C993        N994   1.358       .  A
N994        C995   1.357       .  A
C995       C1673   1.470       .  S
C995        N996   1.358       .  A
C997       C1769   1.489       .  S
C997        N998   1.363       .  A
C997       N1002   1.364       .  A
N998        C999   1.361       .  A
C999       C1633   1.481       .  S
C999       N1000   1.357       .  A
N1000      C1001   1.357       .  A
C1001      C2081   1.487       .  S
C1001      N1002   1.360       .  A
C1003      C1625   1.488       .  S
C1003      N1004   1.370       .  A
C1003      N1008   1.364       .  A
N1004      C1005   1.367       .  A
C1005      C2033   1.483       .  S
C1005      N1006   1.355       .  A
N1006      C1007   1.348       .  A
C1007      C1641   1.475       .  S
C1007      N1008   1.353       .  A
C1009      C1689   1.488       .  S
C1009      N1010   1.368       .  A
C1009      N1014   1.362       .  A
N1010      C1011   1.369       .  A
C1011      C2049   1.492       .  S
C1011      N1012   1.359       .  A
N1012      C1013   1.353       .  A
C1013      C1609   1.480       .  S
C1013      N1014   1.355       .  A
C1015      C2873   1.492       .  S
C1015      N1016   1.370       .  A
C1015      N1020   1.362       .  A
N1016      C1017   1.367       .  A
C1017      C1585   1.493       .  S
C1017      N1018   1.359       .  A
N1018      C1019   1.352       .  A
C1019      C1601   1.479       .  S
C1019      N1020   1.356       .  A
C1021      C2977   1.500       .  S
C1021      N1022   1.374       .  A
C1021      N1026   1.363       .  A
N1022      C1023   1.372       .  A
C1023      C1745   1.494       .  S
C1023      N1024   1.359       .  A
N1024      C1025   1.350       .  A
C1025      C1569   1.489       .  S
C1025      N1026   1.353       .  A
C1027      C1537   1.483       .  S
C1027      N1028   1.369       .  A
C1027      N1032   1.364       .  A
N1028      C1029   1.365       .  A
C1029      C1553   1.485       .  S
C1029      N1030   1.357       .  A
N1030      C1031   1.350       .  A
C1031      C1577   1.476       .  S
C1031      N1032   1.354       .  A
Zr1033     O1034   2.442       .  S
Zr1033     O1035   2.462       .  S
Zr1033     O1036   2.453       .  S
Zr1033     O1039   2.462       .  S
Zr1033     O1041   2.389       .  S
Zr1033     O1042   2.390       .  S
Zr1033     O1043   2.419       .  S
Zr1033     O1044   2.399       .  S
O1034      H1090   0.990       .  S
O1034      H1098   0.991       .  S
O1035      C1055   1.287       .  A
O1036      C1057   1.286       .  A
O1037     Zr1047   2.421       .  S
O1037      C1056   1.283       .  A
O1038     Zr1046   2.430       .  S
O1038      C1057   1.286       .  A
O1039      C1056   1.290       .  A
O1040     Zr1048   2.392       .  S
O1040      C1055   1.278       .  A
O1041     Zr1046   2.391       .  S
O1041     Zr1048   2.376       .  S
O1042     Zr1047   2.396       .  S
O1042     Zr1048   2.378       .  S
O1042      H1077   0.966       .  S
O1043     Zr1046   2.401       .  S
O1043     Zr1063   2.390       .  S
O1043      H1080   0.965       .  S
O1044     Zr1047   2.386       .  S
O1044     Zr1063   2.380       .  S
Zr1045     O1070   2.441       .  S
Zr1045     O1064   2.462       .  S
Zr1045     O1072   2.461       .  S
Zr1045     O1060   2.474       .  S
Zr1045     O1051   2.401       .  S
Zr1045     O1052   2.417       .  S
Zr1045     O1053   2.389       .  S
Zr1045     O1054   2.391       .  S
Zr1046     O1065   2.436       .  S
Zr1046     O1058   2.434       .  S
Zr1046     O1059   2.425       .  S
Zr1046     O1052   2.401       .  S
Zr1046     O1053   2.398       .  S
Zr1047     O1049   2.436       .  S
Zr1047     O1071   2.438       .  S
Zr1047     O1073   2.425       .  S
Zr1047     O1051   2.384       .  S
Zr1047     O1054   2.389       .  S
Zr1048     O1074   2.435       .  S
Zr1048     O1075   2.435       .  S
Zr1048     O1050   2.437       .  S
Zr1048     O1051   2.376       .  S
Zr1048     O1052   2.387       .  S
O1049      H1086   0.990       .  S
O1050      H1081   0.990       .  S
O1050      H1095   0.990       .  S
O1052      H1078   0.965       .  S
O1053     Zr1063   2.383       .  S
O1054     Zr1063   2.378       .  S
O1054      H1079   0.965       .  S
C1055      C3025   1.489       .  S
C1056      C1529   1.482       .  S
C1057      C1617   1.487       .  S
O1058      H1094   0.989       .  S
O1059      C1061   1.283       .  A
O1060      C1061   1.291       .  A
C1061      C2225   1.487       .  S
O1062     Zr1063   2.438       .  S
O1062      H1091   0.990       .  S
Zr1063     O1066   2.436       .  S
Zr1063     O1067   2.442       .  S
Zr1063     O1068   2.394       .  S
O1064      C1069   1.287       .  A
O1065      H1082   0.990       .  S
O1065      H1097   0.990       .  S
O1066      H1083   0.990       .  S
O1067      H1087   0.990       .  S
O1067      H1096   0.990       .  S
O1068      C1069   1.278       .  A
C1069      C1561   1.482       .  S
O1070      H1089   0.990       .  S
O1070      H1093   0.990       .  S
O1071      H1085   0.990       .  S
O1071      H1092   0.990       .  S
O1072      C1076   1.289       .  A
O1073      C1076   1.286       .  A
O1074      H1084   0.990       .  S
O1075      H1088   0.990       .  S
C1076      C1593   1.488       .  S
C1099      C1497   1.488       .  S
C1099      N1100   1.366       .  A
C1099      N1104   1.356       .  A
N1100      C1101   1.367       .  A
C1101      C3257   1.491       .  S
C1101      N1102   1.362       .  A
N1102      C1103   1.357       .  A
C1103      C1513   1.482       .  S
C1103      N1104   1.353       .  A
C1105      C1465   1.483       .  S
C1105      N1106   1.362       .  A
C1105      N1110   1.362       .  A
N1106      C1107   1.358       .  A
C1107      C1505   1.480       .  S
C1107      N1108   1.353       .  A
N1108      C1109   1.356       .  A
C1109      C1473   1.482       .  S
C1109      N1110   1.361       .  A
C1111      C3241   1.482       .  S
C1111      N1112   1.362       .  A
C1111      N1116   1.357       .  A
N1112      C1113   1.363       .  A
C1113      C1521   1.480       .  S
C1113      N1114   1.360       .  A
N1114      C1115   1.357       .  A
C1115      C1441   1.470       .  S
C1115      N1116   1.354       .  A
C1117      C1713   1.469       .  S
C1117      N1118   1.356       .  A
C1117      N1122   1.363       .  A
N1118      C1119   1.351       .  A
C1119      C1449   1.475       .  S
C1119      N1120   1.353       .  A
N1120      C1121   1.358       .  A
C1121      C1433   1.471       .  S
C1121      N1122   1.361       .  A
Zr1123     O1124   2.441       .  S
Zr1123     O1125   2.449       .  S
Zr1123     O1126   2.425       .  S
Zr1123     O1129   2.413       .  S
Zr1123     O1131   2.381       .  S
Zr1123     O1132   2.380       .  S
Zr1123     O1133   2.406       .  S
Zr1123     O1134   2.411       .  S
O1124      H1180   0.990       .  S
O1124      H1188   0.990       .  S
O1125      C1145   1.288       .  A
O1126      C1147   1.282       .  A
O1127     Zr1137   2.433       .  S
O1127      C1146   1.286       .  A
O1128     Zr1136   2.431       .  S
O1128      C1147   1.285       .  A
O1129      C1146   1.281       .  A
O1130     Zr1138   2.431       .  S
O1130      C1145   1.283       .  A
O1131     Zr1136   2.385       .  S
O1131     Zr1138   2.383       .  S
O1132     Zr1137   2.388       .  S
O1132     Zr1138   2.367       .  S
O1132      H1167   0.966       .  S
O1133     Zr1136   2.384       .  S
O1133     Zr1153   2.386       .  S
O1133      H1170   0.965       .  S
O1134     Zr1137   2.383       .  S
O1134     Zr1153   2.405       .  S
Zr1135     O1160   2.439       .  S
Zr1135     O1154   2.443       .  S
Zr1135     O1162   2.467       .  S
Zr1135     O1150   2.456       .  S
Zr1135     O1141   2.404       .  S
Zr1135     O1142   2.414       .  S
Zr1135     O1143   2.385       .  S
Zr1135     O1144   2.389       .  S
Zr1136     O1155   2.437       .  S
Zr1136     O1148   2.436       .  S
Zr1136     O1149   2.407       .  S
Zr1136     O1142   2.394       .  S
Zr1136     O1143   2.393       .  S
Zr1137     O1139   2.435       .  S
Zr1137     O1161   2.438       .  S
Zr1137     O1163   2.415       .  S
Zr1137     O1141   2.397       .  S
Zr1137     O1144   2.391       .  S
Zr1138     O1164   2.437       .  S
Zr1138     O1165   2.434       .  S
Zr1138     O1140   2.437       .  S
Zr1138     O1141   2.392       .  S
Zr1138     O1142   2.401       .  S
O1139      H1176   0.990       .  S
O1140      H1171   0.990       .  S
O1140      H1185   0.990       .  S
O1142      H1168   0.966       .  S
O1143     Zr1153   2.372       .  S
O1144     Zr1153   2.379       .  S
O1144      H1169   0.966       .  S
C1145      C1817   1.487       .  S
C1146      C2265   1.477       .  S
C1147      C1481   1.471       .  S
O1148      H1184   0.990       .  S
O1149      C1151   1.281       .  A
O1150      C1151   1.289       .  A
C1151      C1425   1.488       .  S
O1152     Zr1153   2.440       .  S
O1152      H1181   0.990       .  S
Zr1153     O1156   2.438       .  S
Zr1153     O1157   2.437       .  S
Zr1153     O1158   2.434       .  S
O1154      C1159   1.287       .  A
O1155      H1172   0.990       .  S
O1155      H1187   0.990       .  S
O1156      H1173   0.990       .  S
O1157      H1177   0.990       .  S
O1157      H1186   0.990       .  S
O1158      C1159   1.285       .  A
C1159      C2921   1.490       .  S
O1160      H1179   0.990       .  S
O1160      H1183   0.990       .  S
O1161      H1175   0.990       .  S
O1161      H1182   0.990       .  S
O1162      C1166   1.290       .  A
O1163      C1166   1.283       .  A
O1164      H1174   0.990       .  S
O1165      H1178   0.990       .  S
C1166      C2489   1.487       .  S
Zr1189     O1190   2.442       .  S
Zr1189     O1191   2.448       .  S
Zr1189     O1192   2.474       .  S
Zr1189     O1195   2.451       .  S
Zr1189     O1197   2.383       .  S
Zr1189     O1198   2.390   1_455  S
Zr1189     O1199   2.409   1_554  S
Zr1189     O1200   2.407       .  S
O1190      H1246   0.990       .  S
O1190      H1254   0.990       .  S
O1191      C1211   1.287   1_455  A
O1192      C1213   1.290       .  A
O1193     Zr1203   2.423   1_455  S
O1193      C1212   1.285       .  A
O1194     Zr1202   2.391   1_554  S
O1194      C1213   1.277       .  A
O1195      C1212   1.288       .  A
O1196     Zr1204   2.422       .  S
O1196      C1211   1.282       .  A
O1197     Zr1202   2.396   1_554  S
O1197     Zr1204   2.378   1_455  S
O1198     Zr1203   2.393       .  S
O1198     Zr1204   2.374       .  S
O1198      H1233   0.966       .  S
O1199     Zr1202   2.394       .  S
O1199     Zr1219   2.396       .  S
O1199      H1236   0.965   1_556  S
O1200     Zr1203   2.390   1_455  S
O1200     Zr1219   2.382   1_554  S
Zr1201     O1226   2.440       .  S
Zr1201     O1220   2.466   1_655  S
Zr1201     O1228   2.453       .  S
Zr1201     O1216   2.475       .  S
Zr1201     O1207   2.413       .  S
Zr1201     O1208   2.416       .  S
Zr1201     O1209   2.382   1_655  S
Zr1201     O1210   2.394   1_655  S
Zr1202     O1221   2.438       .  S
Zr1202     O1214   2.435       .  S
Zr1202     O1215   2.400       .  S
Zr1202     O1208   2.391   1_455  S
Zr1202     O1209   2.389       .  S
Zr1203     O1205   2.435   1_654  S
Zr1203     O1227   2.439       .  S
Zr1203     O1229   2.429   1_554  S
Zr1203     O1207   2.382   1_554  S
Zr1203     O1210   2.391   1_654  S
Zr1204     O1230   2.435       .  S
Zr1204     O1231   2.434   1_554  S
Zr1204     O1206   2.435       .  S
Zr1204     O1207   2.392   1_554  S
Zr1204     O1208   2.397   1_554  S
O1205      H1242   0.990   1_456  S
O1206      H1237   0.990       .  S
O1206      H1251   0.990       .  S
O1208      H1234   0.965       .  S
O1209     Zr1219   2.384       .  S
O1210     Zr1219   2.383       .  S
O1210      H1235   0.966       .  S
C1211      C1945   1.489       .  S
C1212      C3121   1.486       .  S
C1213      C1417   1.487       .  S
O1214      H1250   0.990       .  S
O1215      C1217   1.278   1_455  A
O1216      C1217   1.289       .  A
C1217      C1457   1.479       .  S
O1218     Zr1219   2.440       .  S
O1218      H1247   0.991       .  S
Zr1219     O1222   2.439       .  S
Zr1219     O1223   2.440       .  S
Zr1219     O1224   2.407       .  S
O1220      C1225   1.289       .  A
O1221      H1238   0.990       .  S
O1221      H1253   0.990       .  S
O1222      H1239   0.990       .  S
O1223      H1243   0.990       .  S
O1223      H1252   0.990       .  S
O1224      C1225   1.280       .  A
C1225      C2113   1.482       .  S
O1226      H1245   0.991       .  S
O1226      H1249   0.990       .  S
O1227      H1241   0.990       .  S
O1227      H1248   0.990       .  S
O1228      C1232   1.287       .  A
O1229      C1232   1.286       .  A
O1230      H1240   0.990       .  S
O1231      H1244   0.990       .  S
C1232      C1545   1.492       .  S
C1255      C2401   1.485       .  S
C1255      N1256   1.366       .  A
C1255      N1260   1.358       .  A
N1256      C1257   1.365       .  A
C1257      C2065   1.479       .  S
C1257      N1258   1.357       .  A
N1258      C1259   1.352       .  A
C1259      C1401   1.470       .  S
C1259      N1260   1.351       .  A
C1261      C2025   1.479       .  S
C1261      N1262   1.364       .  A
C1261      N1266   1.358       .  A
N1262      C1263   1.363       .  A
C1263      C1377   1.477       .  S
C1263      N1264   1.359       .  A
N1264      C1265   1.355       .  A
C1265      C1393   1.475       .  S
C1265      N1266   1.355       .  A
C1267      C1409   1.477       .  S
C1267      N1268   1.363       .  A
C1267      N1272   1.363       .  A
N1268      C1269   1.360       .  A
C1269      C2601   1.477       .  S
C1269      N1270   1.356       .  A
N1270      C1271   1.355       .  A
C1271      C1361   1.487       .  S
C1271      N1272   1.357       .  A
C1273      C1345   1.488       .  S
C1273      N1274   1.371       .  A
C1273      N1278   1.364       .  A
N1274      C1275   1.366       .  A
C1275      C1729   1.489       .  S
C1275      N1276   1.356       .  A
N1276      C1277   1.352       .  A
C1277      C1369   1.474       .  S
C1277      N1278   1.356       .  A
Zr1279     O1280   2.441       .  S
Zr1279     O1281   2.440       .  S
Zr1279     O1282   2.461       .  S
Zr1279     O1285   2.465       .  S
Zr1279     O1287   2.384       .  S
Zr1279     O1288   2.388       .  S
Zr1279     O1289   2.413       .  S
Zr1279     O1290   2.400       .  S
O1280      H1336   0.990       .  S
O1280      H1344   0.990       .  S
O1281      C1301   1.285       .  A
O1282      C1303   1.288       .  A
O1283     Zr1293   2.403       .  S
O1283      C1302   1.280       .  A
O1284     Zr1292   2.416       .  S
O1284      C1303   1.283       .  A
O1285      C1302   1.290       .  A
O1286     Zr1294   2.429       .  S
O1286      C1301   1.283       .  A
O1287     Zr1292   2.394       .  S
O1287     Zr1294   2.375       .  S
O1288     Zr1293   2.394       .  S
O1288     Zr1294   2.381       .  S
O1288      H1323   0.966       .  S
O1289     Zr1292   2.403       .  S
O1289     Zr1309   2.388       .  S
O1289      H1326   0.965       .  S
O1290     Zr1293   2.390       .  S
O1290     Zr1309   2.389       .  S
Zr1291     O1316   2.443       .  S
Zr1291     O1310   2.450       .  S
Zr1291     O1318   2.456       .  S
Zr1291     O1306   2.444       .  S
Zr1291     O1297   2.403       .  S
Zr1291     O1298   2.414       .  S
Zr1291     O1299   2.383       .  S
Zr1291     O1300   2.386       .  S
Zr1292     O1311   2.436       .  S
Zr1292     O1304   2.435       .  S
Zr1292     O1305   2.425       .  S
Zr1292     O1298   2.393       .  S
Zr1292     O1299   2.390       .  S
Zr1293     O1295   2.436       .  S
Zr1293     O1317   2.439       .  S
Zr1293     O1319   2.412       .  S
Zr1293     O1297   2.389       .  S
Zr1293     O1300   2.389       .  S
Zr1294     O1320   2.435       .  S
Zr1294     O1321   2.436       .  S
Zr1294     O1296   2.438       .  S
Zr1294     O1297   2.394       .  S
Zr1294     O1298   2.399       .  S
O1295      H1332   0.990       .  S
O1296      H1327   0.990       .  S
O1296      H1341   0.990       .  S
O1298      H1324   0.965       .  S
O1299     Zr1309   2.378       .  S
O1300     Zr1309   2.385       .  S
O1300      H1325   0.966       .  S
C1301      C1353   1.489       .  S
C1302      C1385   1.491       .  S
C1303      C1489   1.483       .  S
O1304      H1340   0.990       .  S
O1305      C1307   1.284       .  A
O1306      C1307   1.286       .  A
C1307      C2105   1.486       .  S
O1308     Zr1309   2.435       .  S
O1308      H1337   0.990       .  S
Zr1309     O1312   2.437       .  S
Zr1309     O1313   2.438       .  S
Zr1309     O1314   2.403       .  S
O1310      C1315   1.286       .  A
O1311      H1328   0.990       .  S
O1311      H1343   0.990       .  S
O1312      H1329   0.990       .  S
O1313      H1333   0.990       .  S
O1313      H1342   0.990       .  S
O1314      C1315   1.279       .  A
C1315      C1657   1.482       .  S
O1316      H1335   0.990       .  S
O1316      H1339   0.990       .  S
O1317      H1331   0.990       .  S
O1317      H1338   0.990       .  S
O1318      C1322   1.287       .  A
O1319      C1322   1.282       .  A
O1320      H1330   0.990       .  S
O1321      H1334   0.990       .  S
C1322      C2457   1.483       .  S
C1345      C1346   1.406       .  A
C1345      C1350   1.409       .  A
C1346      C1347   1.403       .  A
C1346      H1355   1.083       .  S
C1347      C1348   1.405       .  A
C1347      H1356   1.083       .  S
C1348      C1354   1.410       .  A
C1348      C1349   1.413       .  A
C1349      C1351   1.402       .  A
C1349      C1350   1.406       .  A
C1350      H1357   1.084       .  S
C1351      C1352   1.397       .  A
C1351      H1358   1.084       .  S
C1352      C1353   1.407       .  A
C1352      H1359   1.083       .  S
C1353      C1354   1.411       .  A
C1354      H1360   1.084       .  S
C1361      C1362   1.407       .  A
C1361      C1366   1.407       .  A
C1362      C1363   1.403   1_554  A
C1362      H1371   1.083       .  S
C1363      C1364   1.405       .  A
C1363      H1372   1.083       .  S
C1364      C1370   1.410       .  A
C1364      C1365   1.414   1_556  A
C1365      C1367   1.400       .  A
C1365      C1366   1.400       .  A
C1366      H1373   1.084       .  S
C1367      C1368   1.393       .  A
C1367      H1374   1.084       .  S
C1368      C1369   1.403   1_554  A
C1368      H1375   1.083       .  S
C1369      C1370   1.407       .  A
C1370      H1376   1.084       .  S
C1377      C1378   1.403       .  A
C1377      C1382   1.409       .  A
C1378      C1379   1.392       .  A
C1378      H1387   1.084       .  S
C1379      C1380   1.400       .  A
C1379      H1388   1.084       .  S
C1380      C1386   1.399       .  A
C1380      C1381   1.412       .  A
C1381      C1383   1.407       .  A
C1381      C1382   1.412       .  A
C1382      H1389   1.084       .  S
C1383      C1384   1.406       .  A
C1383      H1390   1.083       .  S
C1384      C1385   1.407       .  A
C1384      H1391   1.083       .  S
C1385      C1386   1.410       .  A
C1386      H1392   1.084       .  S
C1393      C1394   1.405       .  A
C1393      C1398   1.404       .  A
C1394      C1395   1.398       .  A
C1394      H1403   1.083       .  S
C1395      C1396   1.403       .  A
C1395      H1404   1.084       .  S
C1396      C1402   1.403   1_565  A
C1396      C1397   1.414       .  A
C1397      C1399   1.401   1_565  A
C1397      C1398   1.401       .  A
C1398      H1405   1.084       .  S
C1399      C1400   1.395       .  A
C1399      H1406   1.084       .  S
C1400      C1401   1.403       .  A
C1400      H1407   1.083       .  S
C1401      C1402   1.405       .  A
C1402      H1408   1.084       .  S
C1409      C1410   1.406       .  A
C1409      C1414   1.401       .  A
C1410      C1411   1.403       .  A
C1410      H1419   1.083       .  S
C1411      C1412   1.404       .  A
C1411      H1420   1.083       .  S
C1412      C1418   1.412       .  A
C1412      C1413   1.415       .  A
C1413      C1415   1.395       .  A
C1413      C1414   1.400       .  A
C1414      H1421   1.085       .  S
C1415      C1416   1.389       .  A
C1415      H1422   1.084       .  S
C1416      C1417   1.412       .  A
C1416      H1423   1.083   1_554  S
C1417      C1418   1.409       .  A
C1418      H1424   1.084       .  S
C1425      C1426   1.407       .  A
C1425      C1430   1.407       .  A
C1426      C1427   1.406       .  A
C1426      H1435   1.083       .  S
C1427      C1428   1.407       .  A
C1427      H1436   1.083       .  S
C1428      C1434   1.412       .  A
C1428      C1429   1.413       .  A
C1429      C1431   1.398       .  A
C1429      C1430   1.396       .  A
C1430      H1437   1.084       .  S
C1431      C1432   1.388       .  A
C1431      H1438   1.084       .  S
C1432      C1433   1.402       .  A
C1432      H1439   1.084       .  S
C1433      C1434   1.409       .  A
C1434      H1440   1.084       .  S
C1441      C1442   1.403       .  A
C1441      C1446   1.404       .  A
C1442      C1443   1.397       .  A
C1442      H1451   1.083       .  S
C1443      C1444   1.403       .  A
C1443      H1452   1.084       .  S
C1444      C1450   1.401   1_545  A
C1444      C1445   1.414   1_545  A
C1445      C1447   1.402       .  A
C1445      C1446   1.401   1_565  A
C1446      H1453   1.085       .  S
C1447      C1448   1.396       .  A
C1447      H1454   1.084       .  S
C1448      C1449   1.405       .  A
C1448      H1455   1.083       .  S
C1449      C1450   1.406       .  A
C1450      H1456   1.084       .  S
C1457      C1458   1.407   1_655  A
C1457      C1462   1.407       .  A
C1458      C1459   1.394       .  A
C1458      H1467   1.084       .  S
C1459      C1460   1.399   1_455  A
C1459      H1468   1.084       .  S
C1460      C1466   1.403       .  A
C1460      C1461   1.415       .  A
C1461      C1463   1.404       .  A
C1461      C1462   1.410       .  A
C1462      H1469   1.084       .  S
C1463      C1464   1.401       .  A
C1463      H1470   1.083       .  S
C1464      C1465   1.406       .  A
C1464      H1471   1.083       .  S
C1465      C1466   1.405       .  A
C1466      H1472   1.084       .  S
C1473      C1474   1.406       .  A
C1473      C1478   1.407       .  A
C1474      C1475   1.400       .  A
C1474      H1483   1.083       .  S
C1475      C1476   1.404       .  A
C1475      H1484   1.084       .  S
C1476      C1482   1.404       .  A
C1476      C1477   1.412       .  A
C1477      C1479   1.401       .  A
C1477      C1478   1.397       .  A
C1478      H1485   1.084       .  S
C1479      C1480   1.393       .  A
C1479      H1486   1.084       .  S
C1480      C1481   1.402       .  A
C1480      H1487   1.083       .  S
C1481      C1482   1.408       .  A
C1482      H1488   1.084       .  S
C1489      C1490   1.407       .  A
C1489      C1494   1.410       .  A
C1490      C1491   1.394       .  A
C1490      H1499   1.083       .  S
C1491      C1492   1.401       .  A
C1491      H1500   1.084       .  S
C1492      C1498   1.401       .  A
C1492      C1493   1.412       .  A
C1493      C1495   1.406       .  A
C1493      C1494   1.410       .  A
C1494      H1501   1.084       .  S
C1495      C1496   1.404       .  A
C1495      H1502   1.083       .  S
C1496      C1497   1.406       .  A
C1496      H1503   1.083       .  S
C1497      C1498   1.410       .  A
C1498      H1504   1.084       .  S
C1505      C1506   1.408       .  A
C1505      C1510   1.405       .  A
C1506      C1507   1.396       .  A
C1506      H1515   1.083       .  S
C1507      C1508   1.400   1_655  A
C1507      H1516   1.084       .  S
C1508      C1514   1.404       .  A
C1508      C1509   1.415       .  A
C1509      C1511   1.400       .  A
C1509      C1510   1.404   1_455  A
C1510      H1517   1.084   1_655  S
C1511      C1512   1.396       .  A
C1511      H1518   1.084       .  S
C1512      C1513   1.408       .  A
C1512      H1519   1.083       .  S
C1513      C1514   1.406       .  A
C1514      H1520   1.084       .  S
C1521      C1522   1.404       .  A
C1521      C1526   1.407       .  A
C1522      C1523   1.400       .  A
C1522      H1531   1.083       .  S
C1523      C1524   1.405       .  A
C1523      H1532   1.083       .  S
C1524      C1530   1.407       .  A
C1524      C1525   1.413       .  A
C1525      C1527   1.403       .  A
C1525      C1526   1.406       .  A
C1526      H1533   1.084       .  S
C1527      C1528   1.399       .  A
C1527      H1534   1.083       .  S
C1528      C1529   1.404       .  A
C1528      H1535   1.083       .  S
C1529      C1530   1.409       .  A
C1530      H1536   1.084       .  S
C1537      C1538   1.406       .  A
C1537      C1542   1.404       .  A
C1538      C1539   1.406       .  A
C1538      H1547   1.083       .  S
C1539      C1540   1.408       .  A
C1539      H1548   1.083       .  S
C1540      C1546   1.414       .  A
C1540      C1541   1.413       .  A
C1541      C1543   1.398       .  A
C1541      C1542   1.401       .  A
C1542      H1549   1.085       .  S
C1543      C1544   1.392       .  A
C1543      H1550   1.084       .  S
C1544      C1545   1.408       .  A
C1544      H1551   1.083       .  S
C1545      C1546   1.414       .  A
C1546      H1552   1.084       .  S
C1553      C1554   1.407       .  A
C1553      C1558   1.413       .  A
C1554      C1555   1.385       .  A
C1554      H1563   1.083       .  S
C1555      C1556   1.394       .  A
C1555      H1564   1.084       .  S
C1556      C1562   1.393       .  A
C1556      C1557   1.413       .  A
C1557      C1559   1.410       .  A
C1557      C1558   1.417       .  A
C1558      H1565   1.084       .  S
C1559      C1560   1.410       .  A
C1559      H1566   1.083       .  S
C1560      C1561   1.406       .  A
C1560      H1567   1.083       .  S
C1561      C1562   1.402       .  A
C1562      H1568   1.085       .  S
C1569      C1570   1.408       .  A
C1569      C1574   1.409       .  A
C1570      C1571   1.401       .  A
C1570      H1579   1.083       .  S
C1571      C1572   1.403   1_554  A
C1571      H1580   1.083       .  S
C1572      C1578   1.409       .  A
C1572      C1573   1.414       .  A
C1573      C1575   1.402       .  A
C1573      C1574   1.404   1_556  A
C1574      H1581   1.084   1_554  S
C1575      C1576   1.396       .  A
C1575      H1582   1.084       .  S
C1576      C1577   1.404       .  A
C1576      H1583   1.083       .  S
C1577      C1578   1.406       .  A
C1578      H1584   1.084       .  S
C1585      C1586   1.409       .  A
C1585      C1590   1.414       .  A
C1586      C1587   1.390       .  A
C1586      H1595   1.083       .  S
C1587      C1588   1.396       .  A
C1587      H1596   1.084       .  S
C1588      C1594   1.399       .  A
C1588      C1589   1.413       .  A
C1589      C1591   1.408       .  A
C1589      C1590   1.417       .  A
C1590      H1597   1.083       .  S
C1591      C1592   1.408       .  A
C1591      H1598   1.083       .  S
C1592      C1593   1.408       .  A
C1592      H1599   1.083       .  S
C1593      C1594   1.404       .  A
C1594      H1600   1.085       .  S
C1601      C1602   1.404       .  A
C1601      C1606   1.406       .  A
C1602      C1603   1.400   1_655  A
C1602      H1611   1.083       .  S
C1603      C1604   1.404       .  A
C1603      H1612   1.083       .  S
C1604      C1610   1.408       .  A
C1604      C1605   1.414       .  A
C1605      C1607   1.402       .  A
C1605      C1606   1.405   1_455  A
C1606      H1613   1.084       .  S
C1607      C1608   1.397       .  A
C1607      H1614   1.084       .  S
C1608      C1609   1.405       .  A
C1608      H1615   1.083       .  S
C1609      C1610   1.407       .  A
C1610      H1616   1.084       .  S
C1617      C1618   1.406       .  A
C1617      C1622   1.413       .  A
C1618      C1619   1.393       .  A
C1618      H1627   1.083       .  S
C1619      C1620   1.399       .  A
C1619      H1628   1.084       .  S
C1620      C1626   1.401       .  A
C1620      C1621   1.412       .  A
C1621      C1623   1.407       .  A
C1621      C1622   1.412       .  A
C1622      H1629   1.084       .  S
C1623      C1624   1.406       .  A
C1623      H1630   1.083       .  S
C1624      C1625   1.407       .  A
C1624      H1631   1.083       .  S
C1625      C1626   1.407       .  A
C1626      H1632   1.084       .  S
C1633      C1634   1.406       .  A
C1633      C1638   1.405       .  A
C1634      C1635   1.397       .  A
C1634      H1643   1.083       .  S
C1635      C1636   1.401       .  A
C1635      H1644   1.084       .  S
C1636      C1642   1.406       .  A
C1636      C1637   1.416       .  A
C1637      C1639   1.401       .  A
C1637      C1638   1.407       .  A
C1638      H1645   1.084       .  S
C1639      C1640   1.397       .  A
C1639      H1646   1.084       .  S
C1640      C1641   1.405       .  A
C1640      H1647   1.083       .  S
C1641      C1642   1.403       .  A
C1642      H1648   1.084       .  S
C1649      C1650   1.405       .  A
C1649      C1654   1.412       .  A
C1650      C1651   1.392       .  A
C1650      H1659   1.083       .  S
C1651      C1652   1.399       .  A
C1651      H1660   1.084       .  S
C1652      C1658   1.397       .  A
C1652      C1653   1.412       .  A
C1653      C1655   1.406       .  A
C1653      C1654   1.408       .  A
C1654      H1661   1.084       .  S
C1655      C1656   1.403       .  A
C1655      H1662   1.083       .  S
C1656      C1657   1.406       .  A
C1656      H1663   1.083       .  S
C1657      C1658   1.407       .  A
C1658      H1664   1.084       .  S
C1665      C1666   1.404       .  A
C1665      C1670   1.404       .  A
C1666      C1667   1.397       .  A
C1666      H1675   1.083       .  S
C1667      C1668   1.403       .  A
C1667      H1676   1.084       .  S
C1668      C1674   1.402       .  A
C1668      C1669   1.414       .  A
C1669      C1671   1.402       .  A
C1669      C1670   1.400       .  A
C1670      H1677   1.084       .  S
C1671      C1672   1.396       .  A
C1671      H1678   1.084       .  S
C1672      C1673   1.403       .  A
C1672      H1679   1.083       .  S
C1673      C1674   1.404       .  A
C1674      H1680   1.085       .  S
C1681      C1682   1.409       .  A
C1681      C1686   1.409       .  A
C1682      C1683   1.409       .  A
C1682      H1691   1.083       .  S
C1683      C1684   1.408       .  A
C1683      H1692   1.083       .  S
C1684      C1690   1.418       .  A
C1684      C1685   1.413       .  A
C1685      C1687   1.399       .  A
C1685      C1686   1.403       .  A
C1686      H1693   1.084       .  S
C1687      C1688   1.393       .  A
C1687      H1694   1.084       .  S
C1688      C1689   1.405       .  A
C1688      H1695   1.083       .  S
C1689      C1690   1.413       .  A
C1690      H1696   1.084       .  S
C1697      C1698   1.408       .  A
C1697      C1702   1.407       .  A
C1698      C1699   1.401       .  A
C1698      H1707   1.083       .  S
C1699      C1700   1.404       .  A
C1699      H1708   1.083       .  S
C1700      C1706   1.410       .  A
C1700      C1701   1.413       .  A
C1701      C1703   1.399       .  A
C1701      C1702   1.404       .  A
C1702      H1709   1.084       .  S
C1703      C1704   1.395       .  A
C1703      H1710   1.084       .  S
C1704      C1705   1.408       .  A
C1704      H1711   1.083       .  S
C1705      C1706   1.411       .  A
C1706      H1712   1.084       .  S
C1713      C1714   1.406       .  A
C1713      C1718   1.401       .  A
C1714      C1715   1.391       .  A
C1714      H1723   1.083       .  S
C1715      C1716   1.397       .  A
C1715      H1724   1.084       .  S
C1716      C1722   1.398       .  A
C1716      C1717   1.417       .  A
C1717      C1719   1.400       .  A
C1717      C1718   1.402       .  A
C1718      H1725   1.084       .  S
C1719      C1720   1.395       .  A
C1719      H1726   1.084       .  S
C1720      C1721   1.405       .  A
C1720      H1727   1.084       .  S
C1721      C1722   1.398       .  A
C1722      H1728   1.085       .  S
C1729      C1730   1.407       .  A
C1729      C1734   1.412       .  A
C1730      C1731   1.391       .  A
C1730      H1739   1.083       .  S
C1731      C1732   1.398       .  A
C1731      H1740   1.084       .  S
C1732      C1738   1.403       .  A
C1732      C1733   1.414       .  A
C1733      C1735   1.407       .  A
C1733      C1734   1.418       .  A
C1734      H1741   1.084       .  S
C1735      C1736   1.408       .  A
C1735      H1742   1.083       .  S
C1736      C1737   1.410       .  A
C1736      H1743   1.083       .  S
C1737      C1738   1.408       .  A
C1738      H1744   1.084       .  S
C1745      C1746   1.409       .  A
C1745      C1750   1.413       .  A
C1746      C1747   1.390       .  A
C1746      H1755   1.083       .  S
C1747      C1748   1.395       .  A
C1747      H1756   1.084   1_554  S
C1748      C1754   1.405       .  A
C1748      C1749   1.416       .  A
C1749      C1751   1.408       .  A
C1749      C1750   1.421       .  A
C1750      H1757   1.084       .  S
C1751      C1752   1.409       .  A
C1751      H1758   1.083       .  S
C1752      C1753   1.407       .  A
C1752      H1759   1.083       .  S
C1753      C1754   1.402       .  A
C1754      H1760   1.085   1_554  S
C1761      C1762   1.403       .  A
C1761      C1766   1.407       .  A
C1762      C1763   1.402       .  A
C1762      H1771   1.083       .  S
C1763      C1764   1.406       .  A
C1763      H1772   1.083       .  S
C1764      C1770   1.409       .  A
C1764      C1765   1.413       .  A
C1765      C1767   1.401       .  A
C1765      C1766   1.403       .  A
C1766      H1773   1.085       .  S
C1767      C1768   1.397       .  A
C1767      H1774   1.084       .  S
C1768      C1769   1.407       .  A
C1768      H1775   1.083       .  S
C1769      C1770   1.411       .  A
C1770      H1776   1.084       .  S
C1777      C1778   1.401       .  A
C1777      C1782   1.400       .  A
C1778      C1779   1.398       .  A
C1778      H1787   1.083       .  S
C1779      C1780   1.404       .  A
C1779      H1788   1.084       .  S
C1780      C1786   1.404       .  A
C1780      C1781   1.415       .  A
C1781      C1783   1.400       .  A
C1781      C1782   1.402       .  A
C1782      H1789   1.085       .  S
C1783      C1784   1.395       .  A
C1783      H1790   1.084       .  S
C1784      C1785   1.408       .  A
C1784      H1791   1.083       .  S
C1785      C1786   1.408       .  A
C1786      H1792   1.084       .  S
C1793      C1794   1.404       .  A
C1793      C1798   1.406       .  A
C1794      C1795   1.397       .  A
C1794      H1803   1.083       .  S
C1795      C1796   1.403       .  A
C1795      H1804   1.084       .  S
C1796      C1802   1.402       .  A
C1796      C1797   1.413       .  A
C1797      C1799   1.403       .  A
C1797      C1798   1.403       .  A
C1798      H1805   1.084       .  S
C1799      C1800   1.399       .  A
C1799      H1806   1.084       .  S
C1800      C1801   1.405       .  A
C1800      H1807   1.083       .  S
C1801      C1802   1.406       .  A
C1802      H1808   1.084       .  S
C1809      C1810   1.405       .  A
C1809      C1814   1.413       .  A
C1810      C1811   1.403       .  A
C1810      H1819   1.083       .  S
C1811      C1812   1.406       .  A
C1811      H1820   1.083       .  S
C1812      C1818   1.409       .  A
C1812      C1813   1.411       .  A
C1813      C1815   1.404       .  A
C1813      C1814   1.405       .  A
C1814      H1821   1.084       .  S
C1815      C1816   1.400       .  A
C1815      H1822   1.084       .  S
C1816      C1817   1.405       .  A
C1816      H1823   1.083       .  S
C1817      C1818   1.411       .  A
C1818      H1824   1.084       .  S
C1825      C1826   1.411       .  A
C1825      C1830   1.405       .  A
C1826      C1827   1.397       .  A
C1826      H1835   1.083       .  S
C1827      C1828   1.399       .  A
C1827      H1836   1.084       .  S
C1828      C1834   1.408       .  A
C1828      C1829   1.417       .  A
C1829      C1831   1.400       .  A
C1829      C1830   1.407       .  A
C1830      H1837   1.084       .  S
C1831      C1832   1.396       .  A
C1831      H1838   1.084       .  S
C1832      C1833   1.407       .  A
C1832      H1839   1.083       .  S
C1833      C1834   1.402       .  A
C1834      H1840   1.084       .  S
C1841      C1842   1.404       .  A
C1841      C1846   1.404       .  A
C1842      C1843   1.395       .  A
C1842      H1851   1.083       .  S
C1843      C1844   1.401       .  A
C1843      H1852   1.084       .  S
C1844      C1850   1.403   1_556  A
C1844      C1845   1.416   1_556  A
C1845      C1847   1.401       .  A
C1845      C1846   1.404   1_554  A
C1846      H1853   1.084       .  S
C1847      C1848   1.397       .  A
C1847      H1854   1.084       .  S
C1848      C1849   1.405       .  A
C1848      H1855   1.083       .  S
C1849      C1850   1.403       .  A
C1850      H1856   1.084       .  S
C1857      C1858   1.405       .  A
C1857      C1862   1.407       .  A
C1858      C1859   1.400       .  A
C1858      H1867   1.083       .  S
C1859      C1860   1.404       .  A
C1859      H1868   1.083       .  S
C1860      C1866   1.409       .  A
C1860      C1861   1.415       .  A
C1861      C1863   1.403       .  A
C1861      C1862   1.407       .  A
C1862      H1869   1.084       .  S
C1863      C1864   1.399       .  A
C1863      H1870   1.084       .  S
C1864      C1865   1.402       .  A
C1864      H1871   1.083   1_655  S
C1865      C1866   1.406       .  A
C1866      H1872   1.084       .  S
C1873      C1874   1.407       .  A
C1873      C1878   1.408       .  A
C1874      C1875   1.402       .  A
C1874      H1883   1.083       .  S
C1875      C1876   1.404       .  A
C1875      H1884   1.084       .  S
C1876      C1882   1.409       .  A
C1876      C1877   1.413       .  A
C1877      C1879   1.402       .  A
C1877      C1878   1.404       .  A
C1878      H1885   1.084       .  S
C1879      C1880   1.397       .  A
C1879      H1886   1.084       .  S
C1880      C1881   1.406       .  A
C1880      H1887   1.083       .  S
C1881      C1882   1.408       .  A
C1882      H1888   1.084       .  S
C1889      C1890   1.406       .  A
C1889      C1894   1.408       .  A
C1890      C1891   1.397       .  A
C1890      H1899   1.083       .  S
C1891      C1892   1.401       .  A
C1891      H1900   1.084       .  S
C1892      C1898   1.405       .  A
C1892      C1893   1.414       .  A
C1893      C1895   1.403   1_655  A
C1893      C1894   1.407       .  A
C1894      H1901   1.084       .  S
C1895      C1896   1.400       .  A
C1895      H1902   1.084       .  S
C1896      C1897   1.408       .  A
C1896      H1903   1.083       .  S
C1897      C1898   1.407   1_455  A
C1898      H1904   1.084       .  S
C1905      C1906   1.408       .  A
C1905      C1910   1.413       .  A
C1906      C1907   1.393       .  A
C1906      H1915   1.083       .  S
C1907      C1908   1.399       .  A
C1907      H1916   1.084       .  S
C1908      C1914   1.403       .  A
C1908      C1909   1.413       .  A
C1909      C1911   1.408       .  A
C1909      C1910   1.416       .  A
C1910      H1917   1.084       .  S
C1911      C1912   1.408       .  A
C1911      H1918   1.083       .  S
C1912      C1913   1.408       .  A
C1912      H1919   1.083       .  S
C1913      C1914   1.408       .  A
C1914      H1920   1.084       .  S
C1921      C1922   1.405       .  A
C1921      C1926   1.409       .  A
C1922      C1923   1.399       .  A
C1922      H1931   1.083       .  S
C1923      C1924   1.403       .  A
C1923      H1932   1.084       .  S
C1924      C1930   1.405       .  A
C1924      C1925   1.413       .  A
C1925      C1927   1.405   1_545  A
C1925      C1926   1.406       .  A
C1926      H1933   1.084       .  S
C1927      C1928   1.401       .  A
C1927      H1934   1.084       .  S
C1928      C1929   1.405       .  A
C1928      H1935   1.083       .  S
C1929      C1930   1.406   1_565  A
C1930      H1936   1.084       .  S
C1937      C1938   1.405       .  A
C1937      C1942   1.410       .  A
C1938      C1939   1.400       .  A
C1938      H1947   1.083       .  S
C1939      C1940   1.404       .  A
C1939      H1948   1.083       .  S
C1940      C1946   1.407       .  A
C1940      C1941   1.412       .  A
C1941      C1943   1.404       .  A
C1941      C1942   1.406       .  A
C1942      H1949   1.084       .  S
C1943      C1944   1.400       .  A
C1943      H1950   1.084       .  S
C1944      C1945   1.407       .  A
C1944      H1951   1.083       .  S
C1945      C1946   1.411       .  A
C1946      H1952   1.084       .  S
C1953      C1954   1.407       .  A
C1953      C1958   1.412       .  A
C1954      C1955   1.395       .  A
C1954      H1963   1.083       .  S
C1955      C1956   1.399       .  A
C1955      H1964   1.084       .  S
C1956      C1962   1.406       .  A
C1956      C1957   1.414       .  A
C1957      C1959   1.406       .  A
C1957      C1958   1.416       .  A
C1958      H1965   1.084       .  S
C1959      C1960   1.406       .  A
C1959      H1966   1.083       .  S
C1960      C1961   1.409       .  A
C1960      H1967   1.083       .  S
C1961      C1962   1.409       .  A
C1962      H1968   1.084       .  S
C1969      C1970   1.402       .  A
C1969      C1974   1.403       .  A
C1970      C1971   1.400       .  A
C1970      H1979   1.083       .  S
C1971      C1972   1.405       .  A
C1971      H1980   1.084       .  S
C1972      C1978   1.406       .  A
C1972      C1973   1.414       .  A
C1973      C1975   1.402       .  A
C1973      C1974   1.405       .  A
C1974      H1981   1.084       .  S
C1975      C1976   1.399       .  A
C1975      H1982   1.084       .  S
C1976      C1977   1.406       .  A
C1976      H1983   1.083       .  S
C1977      C1978   1.410       .  A
C1978      H1984   1.084       .  S
C1985      C1986   1.405       .  A
C1985      C1990   1.405       .  A
C1986      C1987   1.402       .  A
C1986      H1995   1.083       .  S
C1987      C1988   1.405       .  A
C1987      H1996   1.083       .  S
C1988      C1994   1.408       .  A
C1988      C1989   1.413       .  A
C1989      C1991   1.400       .  A
C1989      C1990   1.401       .  A
C1990      H1997   1.085       .  S
C1991      C1992   1.395       .  A
C1991      H1998   1.084       .  S
C1992      C1993   1.406       .  A
C1992      H1999   1.083       .  S
C1993      C1994   1.410       .  A
C1994      H2000   1.084       .  S
C2001      C2002   1.407       .  A
C2001      C2006   1.407       .  A
C2002      C2003   1.403       .  A
C2002      H2011   1.083       .  S
C2003      C2004   1.405       .  A
C2003      H2012   1.083       .  S
C2004      C2010   1.412       .  A
C2004      C2005   1.414       .  A
C2005      C2007   1.399       .  A
C2005      C2006   1.403       .  A
C2006      H2013   1.084       .  S
C2007      C2008   1.394       .  A
C2007      H2014   1.084       .  S
C2008      C2009   1.407       .  A
C2008      H2015   1.083       .  S
C2009      C2010   1.408       .  A
C2010      H2016   1.084       .  S
C2017      C2018   1.406       .  A
C2017      C2022   1.413       .  A
C2018      C2019   1.400       .  A
C2018      H2027   1.083       .  S
C2019      C2020   1.404       .  A
C2019      H2028   1.084       .  S
C2020      C2026   1.405       .  A
C2020      C2021   1.412       .  A
C2021      C2023   1.405       .  A
C2021      C2022   1.406       .  A
C2022      H2029   1.084       .  S
C2023      C2024   1.400       .  A
C2023      H2030   1.083       .  S
C2024      C2025   1.403       .  A
C2024      H2031   1.083       .  S
C2025      C2026   1.408       .  A
C2026      H2032   1.084       .  S
C2033      C2034   1.408       .  A
C2033      C2038   1.409       .  A
C2034      C2035   1.389       .  A
C2034      H2043   1.083       .  S
C2035      C2036   1.396       .  A
C2035      H2044   1.084       .  S
C2036      C2042   1.401       .  A
C2036      C2037   1.416       .  A
C2037      C2039   1.405       .  A
C2037      C2038   1.414       .  A
C2038      H2045   1.084       .  S
C2039      C2040   1.404       .  A
C2039      H2046   1.083       .  S
C2040      C2041   1.408       .  A
C2040      H2047   1.083       .  S
C2041      C2042   1.402       .  A
C2042      H2048   1.085       .  S
C2049      C2050   1.406       .  A
C2049      C2054   1.410       .  A
C2050      C2051   1.406       .  A
C2050      H2059   1.083       .  S
C2051      C2052   1.407       .  A
C2051      H2060   1.083       .  S
C2052      C2058   1.415       .  A
C2052      C2053   1.413       .  A
C2053      C2055   1.400       .  A
C2053      C2054   1.404       .  A
C2054      H2061   1.084       .  S
C2055      C2056   1.395       .  A
C2055      H2062   1.084       .  S
C2056      C2057   1.409       .  A
C2056      H2063   1.083       .  S
C2057      C2058   1.413       .  A
C2058      H2064   1.084       .  S
C2065      C2066   1.404       .  A
C2065      C2070   1.406       .  A
C2066      C2067   1.403       .  A
C2066      H2075   1.083       .  S
C2067      C2068   1.406       .  A
C2067      H2076   1.083       .  S
C2068      C2074   1.406       .  A
C2068      C2069   1.412       .  A
C2069      C2071   1.402       .  A
C2069      C2070   1.399       .  A
C2070      H2077   1.084       .  S
C2071      C2072   1.395       .  A
C2071      H2078   1.084       .  S
C2072      C2073   1.402       .  A
C2072      H2079   1.083       .  S
C2073      C2074   1.409       .  A
C2074      H2080   1.084       .  S
C2081      C2082   1.407       .  A
C2081      C2086   1.408       .  A
C2082      C2083   1.402       .  A
C2082      H2091   1.083       .  S
C2083      C2084   1.405       .  A
C2083      H2092   1.083       .  S
C2084      C2090   1.410       .  A
C2084      C2085   1.413       .  A
C2085      C2087   1.401       .  A
C2085      C2086   1.404       .  A
C2086      H2093   1.084       .  S
C2087      C2088   1.396       .  A
C2087      H2094   1.084       .  S
C2088      C2089   1.405       .  A
C2088      H2095   1.083       .  S
C2089      C2090   1.410       .  A
C2090      H2096   1.084       .  S
C2097      C2098   1.406       .  A
C2097      C2102   1.404       .  A
C2098      C2099   1.394       .  A
C2098      H2107   1.084       .  S
C2099      C2100   1.400       .  A
C2099      H2108   1.084       .  S
C2100      C2106   1.403       .  A
C2100      C2101   1.415       .  A
C2101      C2103   1.403       .  A
C2101      C2102   1.409       .  A
C2102      H2109   1.084       .  S
C2103      C2104   1.400       .  A
C2103      H2110   1.083       .  S
C2104      C2105   1.407       .  A
C2104      H2111   1.083       .  S
C2105      C2106   1.407       .  A
C2106      H2112   1.084       .  S
C2113      C2114   1.407       .  A
C2113      C2118   1.405       .  A
C2114      C2115   1.397       .  A
C2114      H2123   1.083       .  S
C2115      C2116   1.400       .  A
C2115      H2124   1.084       .  S
C2116      C2122   1.408       .  A
C2116      C2117   1.416       .  A
C2117      C2119   1.400       .  A
C2117      C2118   1.409       .  A
C2118      H2125   1.084       .  S
C2119      C2120   1.397       .  A
C2119      H2126   1.084       .  S
C2120      C2121   1.410       .  A
C2120      H2127   1.083       .  S
C2121      C2122   1.406       .  A
C2122      H2128   1.084       .  S
C2129      C2130   1.408       .  A
C2129      C2134   1.403       .  A
C2130      C2131   1.392       .  A
C2130      H2139   1.083       .  S
C2131      C2132   1.398       .  A
C2131      H2140   1.084       .  S
C2132      C2138   1.401       .  A
C2132      C2133   1.416       .  A
C2133      C2135   1.400       .  A
C2133      C2134   1.405       .  A
C2134      H2141   1.084       .  S
C2135      C2136   1.396       .  A
C2135      H2142   1.084       .  S
C2136      C2137   1.407       .  A
C2136      H2143   1.083       .  S
C2137      C2138   1.402       .  A
C2138      H2144   1.085       .  S
C2145      C2146   1.402       .  A
C2145      C2150   1.407       .  A
C2146      C2147   1.392       .  A
C2146      H2155   1.083       .  S
C2147      C2148   1.400       .  A
C2147      H2156   1.084       .  S
C2148      C2154   1.396       .  A
C2148      C2149   1.414       .  A
C2149      C2151   1.404       .  A
C2149      C2150   1.403       .  A
C2150      H2157   1.084       .  S
C2151      C2152   1.399       .  A
C2151      H2158   1.084       .  S
C2152      C2153   1.404       .  A
C2152      H2159   1.083       .  S
C2153      C2154   1.402       .  A
C2154      H2160   1.085       .  S
C2161      C2162   1.408       .  A
C2161      C2166   1.412       .  A
C2162      C2163   1.394       .  A
C2162      H2171   1.083       .  S
C2163      C2164   1.399       .  A
C2163      H2172   1.084       .  S
C2164      C2170   1.402       .  A
C2164      C2165   1.413       .  A
C2165      C2167   1.406       .  A
C2165      C2166   1.411       .  A
C2166      H2173   1.084       .  S
C2167      C2168   1.403       .  A
C2167      H2174   1.083       .  S
C2168      C2169   1.404       .  A
C2168      H2175   1.083       .  S
C2169      C2170   1.404       .  A
C2170      H2176   1.085       .  S
C2177      C2178   1.407       .  A
C2177      C2182   1.405       .  A
C2178      C2179   1.409       .  A
C2178      H2187   1.083       .  S
C2179      C2180   1.409       .  A
C2179      H2188   1.083       .  S
C2180      C2186   1.415       .  A
C2180      C2181   1.412       .  A
C2181      C2183   1.397       .  A
C2181      C2182   1.398       .  A
C2182      H2189   1.085       .  S
C2183      C2184   1.389       .  A
C2183      H2190   1.084       .  S
C2184      C2185   1.407       .  A
C2184      H2191   1.083   1_554  S
C2185      C2186   1.414       .  A
C2186      H2192   1.084       .  S
C2193      C2194   1.407       .  A
C2193      C2198   1.408       .  A
C2194      C2195   1.397   1_554  A
C2194      H2203   1.083       .  S
C2195      C2196   1.401       .  A
C2195      H2204   1.084       .  S
C2196      C2202   1.407       .  A
C2196      C2197   1.414   1_556  A
C2197      C2199   1.403       .  A
C2197      C2198   1.412       .  A
C2198      H2205   1.084       .  S
C2199      C2200   1.402   1_554  A
C2199      H2206   1.083       .  S
C2200      C2201   1.408       .  A
C2200      H2207   1.083       .  S
C2201      C2202   1.409       .  A
C2202      H2208   1.084       .  S
C2209      C2210   1.408       .  A
C2209      C2214   1.408       .  A
C2210      C2211   1.398       .  A
C2210      H2219   1.083       .  S
C2211      C2212   1.401       .  A
C2211      H2220   1.084       .  S
C2212      C2218   1.405       .  A
C2212      C2213   1.414       .  A
C2213      C2215   1.402       .  A
C2213      C2214   1.404       .  A
C2214      H2221   1.084       .  S
C2215      C2216   1.397       .  A
C2215      H2222   1.084       .  S
C2216      C2217   1.405       .  A
C2216      H2223   1.083       .  S
C2217      C2218   1.406       .  A
C2218      H2224   1.084       .  S
C2225      C2226   1.404       .  A
C2225      C2230   1.411       .  A
C2226      C2227   1.401       .  A
C2226      H2235   1.083       .  S
C2227      C2228   1.405       .  A
C2227      H2236   1.084       .  S
C2228      C2234   1.408       .  A
C2228      C2229   1.412       .  A
C2229      C2231   1.405       .  A
C2229      C2230   1.409       .  A
C2230      H2237   1.084       .  S
C2231      C2232   1.402       .  A
C2231      H2238   1.083       .  S
C2232      C2233   1.406       .  A
C2232      H2239   1.083       .  S
C2233      C2234   1.412       .  A
C2234      H2240   1.084       .  S
C2241      C2242   1.411       .  A
C2241      C2246   1.408       .  A
C2242      C2243   1.397       .  A
C2242      H2251   1.083       .  S
C2243      C2244   1.399       .  A
C2243      H2252   1.084       .  S
C2244      C2250   1.408       .  A
C2244      C2245   1.416       .  A
C2245      C2247   1.402       .  A
C2245      C2246   1.410       .  A
C2246      H2253   1.084       .  S
C2247      C2248   1.398       .  A
C2247      H2254   1.084       .  S
C2248      C2249   1.406       .  A
C2248      H2255   1.083       .  S
C2249      C2250   1.403       .  A
C2250      H2256   1.085       .  S
C2257      C2258   1.404       .  A
C2257      C2262   1.407       .  A
C2258      C2259   1.390       .  A
C2258      H2267   1.083       .  S
C2259      C2260   1.397       .  A
C2259      H2268   1.084       .  S
C2260      C2266   1.397       .  A
C2260      C2261   1.414       .  A
C2261      C2263   1.403       .  A
C2261      C2262   1.406       .  A
C2262      H2269   1.084       .  S
C2263      C2264   1.400       .  A
C2263      H2270   1.084       .  S
C2264      C2265   1.408       .  A
C2264      H2271   1.083       .  S
C2265      C2266   1.402       .  A
C2266      H2272   1.084       .  S
C2273      C2274   1.404       .  A
C2273      C2278   1.398       .  A
C2274      C2275   1.400       .  A
C2274      H2283   1.083       .  S
C2275      C2276   1.404       .  A
C2275      H2284   1.083       .  S
C2276      C2282   1.407       .  A
C2276      C2277   1.415       .  A
C2277      C2279   1.395       .  A
C2277      C2278   1.398       .  A
C2278      H2285   1.085       .  S
C2279      C2280   1.389       .  A
C2279      H2286   1.084       .  S
C2280      C2281   1.409       .  A
C2280      H2287   1.083       .  S
C2281      C2282   1.408       .  A
C2282      H2288   1.084       .  S
C2289      C2290   1.405       .  A
C2289      C2294   1.405       .  A
C2290      C2291   1.400       .  A
C2290      H2299   1.083       .  S
C2291      C2292   1.404       .  A
C2291      H2300   1.084       .  S
C2292      C2298   1.405       .  A
C2292      C2293   1.414       .  A
C2293      C2295   1.401       .  A
C2293      C2294   1.401       .  A
C2294      H2301   1.084       .  S
C2295      C2296   1.395       .  A
C2295      H2302   1.084       .  S
C2296      C2297   1.405       .  A
C2296      H2303   1.083       .  S
C2297      C2298   1.406       .  A
C2298      H2304   1.084       .  S
C2305      C2306   1.408       .  A
C2305      C2310   1.406       .  A
C2306      C2307   1.398       .  A
C2306      H2315   1.083       .  S
C2307      C2308   1.401       .  A
C2307      H2316   1.084       .  S
C2308      C2314   1.406       .  A
C2308      C2309   1.414       .  A
C2309      C2311   1.400       .  A
C2309      C2310   1.402       .  A
C2310      H2317   1.084       .  S
C2311      C2312   1.395       .  A
C2311      H2318   1.084       .  S
C2312      C2313   1.406       .  A
C2312      H2319   1.083       .  S
C2313      C2314   1.406       .  A
C2314      H2320   1.084       .  S
C2321      C2322   1.403       .  A
C2321      C2326   1.408       .  A
C2322      C2323   1.395       .  A
C2322      H2331   1.083       .  S
C2323      C2324   1.401       .  A
C2323      H2332   1.084       .  S
C2324      C2330   1.400       .  A
C2324      C2325   1.414       .  A
C2325      C2327   1.405       .  A
C2325      C2326   1.406       .  A
C2326      H2333   1.084       .  S
C2327      C2328   1.401       .  A
C2327      H2334   1.083       .  S
C2328      C2329   1.403       .  A
C2328      H2335   1.083       .  S
C2329      C2330   1.402       .  A
C2330      H2336   1.085       .  S
C2337      C2338   1.410       .  A
C2337      C2342   1.411       .  A
C2338      C2339   1.390       .  A
C2338      H2347   1.083       .  S
C2339      C2340   1.396       .  A
C2339      H2348   1.084       .  S
C2340      C2346   1.401       .  A
C2340      C2341   1.415       .  A
C2341      C2343   1.407       .  A
C2341      C2342   1.415       .  A
C2342      H2349   1.084       .  S
C2343      C2344   1.406       .  A
C2343      H2350   1.083       .  S
C2344      C2345   1.405       .  A
C2344      H2351   1.083       .  S
C2345      C2346   1.401       .  A
C2346      H2352   1.085       .  S
C2353      C2354   1.407       .  A
C2353      C2358   1.403       .  A
C2354      C2355   1.407       .  A
C2354      H2363   1.083       .  S
C2355      C2356   1.407       .  A
C2355      H2364   1.083       .  S
C2356      C2362   1.416       .  A
C2356      C2357   1.414       .  A
C2357      C2359   1.395       .  A
C2357      C2358   1.400       .  A
C2358      H2365   1.085       .  S
C2359      C2360   1.389       .  A
C2359      H2366   1.084       .  S
C2360      C2361   1.410       .  A
C2360      H2367   1.083       .  S
C2361      C2362   1.412       .  A
C2362      H2368   1.084       .  S
C2369      C2370   1.407       .  A
C2369      C2374   1.409       .  A
C2370      C2371   1.393       .  A
C2370      H2379   1.083       .  S
C2371      C2372   1.399       .  A
C2371      H2380   1.084       .  S
C2372      C2378   1.401       .  A
C2372      C2373   1.413       .  A
C2373      C2375   1.404       .  A
C2373      C2374   1.410       .  A
C2374      H2381   1.084       .  S
C2375      C2376   1.402       .  A
C2375      H2382   1.083       .  S
C2376      C2377   1.407       .  A
C2376      H2383   1.083       .  S
C2377      C2378   1.406       .  A
C2378      H2384   1.084       .  S
C2385      C2386   1.401       .  A
C2385      C2390   1.407       .  A
C2386      C2387   1.394       .  A
C2386      H2395   1.084       .  S
C2387      C2388   1.402       .  A
C2387      H2396   1.084       .  S
C2388      C2394   1.399       .  A
C2388      C2389   1.413       .  A
C2389      C2391   1.407       .  A
C2389      C2390   1.410       .  A
C2390      H2397   1.084       .  S
C2391      C2392   1.406       .  A
C2391      H2398   1.083       .  S
C2392      C2393   1.405       .  A
C2392      H2399   1.083       .  S
C2393      C2394   1.408       .  A
C2394      H2400   1.084       .  S
C2401      C2402   1.410       .  A
C2401      C2406   1.408       .  A
C2402      C2403   1.391       .  A
C2402      H2411   1.083       .  S
C2403      C2404   1.397       .  A
C2403      H2412   1.084       .  S
C2404      C2410   1.400       .  A
C2404      C2405   1.414       .  A
C2405      C2407   1.403       .  A
C2405      C2406   1.408       .  A
C2406      H2413   1.084       .  S
C2407      C2408   1.400       .  A
C2407      H2414   1.083       .  S
C2408      C2409   1.407       .  A
C2408      H2415   1.083       .  S
C2409      C2410   1.405       .  A
C2410      H2416   1.084       .  S
C2417      C2418   1.410       .  A
C2417      C2422   1.407       .  A
C2418      C2419   1.403       .  A
C2418      H2427   1.083       .  S
C2419      C2420   1.404       .  A
C2419      H2428   1.083       .  S
C2420      C2426   1.415       .  A
C2420      C2421   1.415       .  A
C2421      C2423   1.398       .  A
C2421      C2422   1.406       .  A
C2422      H2429   1.084       .  S
C2423      C2424   1.394       .  A
C2423      H2430   1.084       .  S
C2424      C2425   1.410       .  A
C2424      H2431   1.083       .  S
C2425      C2426   1.410       .  A
C2426      H2432   1.084       .  S
C2433      C2434   1.407       .  A
C2433      C2438   1.409       .  A
C2434      C2435   1.393       .  A
C2434      H2443   1.083       .  S
C2435      C2436   1.399       .  A
C2435      H2444   1.084       .  S
C2436      C2442   1.400       .  A
C2436      C2437   1.414       .  A
C2437      C2439   1.405       .  A
C2437      C2438   1.408       .  A
C2438      H2445   1.084       .  S
C2439      C2440   1.402       .  A
C2439      H2446   1.083       .  S
C2440      C2441   1.405       .  A
C2440      H2447   1.083       .  S
C2441      C2442   1.404       .  A
C2442      H2448   1.085       .  S
C2449      C2450   1.410       .  A
C2449      C2454   1.410       .  A
C2450      C2451   1.390       .  A
C2450      H2459   1.083       .  S
C2451      C2452   1.396       .  A
C2451      H2460   1.084       .  S
C2452      C2458   1.400       .  A
C2452      C2453   1.414       .  A
C2453      C2455   1.405       .  A
C2453      C2454   1.412       .  A
C2454      H2461   1.084       .  S
C2455      C2456   1.403       .  A
C2455      H2462   1.083       .  S
C2456      C2457   1.407       .  A
C2456      H2463   1.083       .  S
C2457      C2458   1.404       .  A
C2458      H2464   1.085       .  S
C2465      C2466   1.407       .  A
C2465      C2470   1.408       .  A
C2466      C2467   1.405       .  A
C2466      H2475   1.083       .  S
C2467      C2468   1.406       .  A
C2467      H2476   1.083       .  S
C2468      C2474   1.412       .  A
C2468      C2469   1.413       .  A
C2469      C2471   1.399       .  A
C2469      C2470   1.401       .  A
C2470      H2477   1.084       .  S
C2471      C2472   1.393       .  A
C2471      H2478   1.084       .  S
C2472      C2473   1.407       .  A
C2472      H2479   1.083       .  S
C2473      C2474   1.410       .  A
C2474      H2480   1.084       .  S
C2481      C2482   1.407       .  A
C2481      C2486   1.409       .  A
C2482      C2483   1.402       .  A
C2482      H2491   1.083       .  S
C2483      C2484   1.404       .  A
C2483      H2492   1.083       .  S
C2484      C2490   1.412       .  A
C2484      C2485   1.414       .  A
C2485      C2487   1.401       .  A
C2485      C2486   1.405       .  A
C2486      H2493   1.084       .  S
C2487      C2488   1.396       .  A
C2487      H2494   1.084       .  S
C2488      C2489   1.408       .  A
C2488      H2495   1.083       .  S
C2489      C2490   1.409       .  A
C2490      H2496   1.084       .  S
C2497      C2498   1.406       .  A
C2497      C2502   1.405       .  A
C2498      C2499   1.396       .  A
C2498      H2507   1.083       .  S
C2499      C2500   1.400       .  A
C2499      H2508   1.084       .  S
C2500      C2506   1.405       .  A
C2500      C2501   1.416       .  A
C2501      C2503   1.402       .  A
C2501      C2502   1.408       .  A
C2502      H2509   1.084       .  S
C2503      C2504   1.398       .  A
C2503      H2510   1.083       .  S
C2504      C2505   1.404       .  A
C2504      H2511   1.083       .  S
C2505      C2506   1.404       .  A
C2506      H2512   1.085       .  S
C2513      C2514   1.407       .  A
C2513      C2518   1.406       .  A
C2514      C2515   1.396       .  A
C2514      H2523   1.083       .  S
C2515      C2516   1.401       .  A
C2515      H2524   1.084       .  S
C2516      C2522   1.401       .  A
C2516      C2517   1.413       .  A
C2517      C2519   1.402       .  A
C2517      C2518   1.403       .  A
C2518      H2525   1.084       .  S
C2519      C2520   1.398       .  A
C2519      H2526   1.084       .  S
C2520      C2521   1.404       .  A
C2520      H2527   1.083       .  S
C2521      C2522   1.406       .  A
C2522      H2528   1.084       .  S
C2529      C2530   1.405       .  A
C2529      C2534   1.407       .  A
C2530      C2531   1.403       .  A
C2530      H2539   1.083       .  S
C2531      C2532   1.406       .  A
C2531      H2540   1.083       .  S
C2532      C2538   1.412       .  A
C2532      C2533   1.413       .  A
C2533      C2535   1.400       .  A
C2533      C2534   1.405       .  A
C2534      H2541   1.085       .  S
C2535      C2536   1.397       .  A
C2535      H2542   1.084       .  S
C2536      C2537   1.408       .  A
C2536      H2543   1.083       .  S
C2537      C2538   1.412       .  A
C2538      H2544   1.084       .  S
C2545      C2546   1.403       .  A
C2545      C2550   1.404       .  A
C2546      C2547   1.400       .  A
C2546      H2555   1.083       .  S
C2547      C2548   1.405       .  A
C2547      H2556   1.084       .  S
C2548      C2554   1.403       .  A
C2548      C2549   1.413       .  A
C2549      C2551   1.401       .  A
C2549      C2550   1.397       .  A
C2550      H2557   1.085       .  S
C2551      C2552   1.394       .  A
C2551      H2558   1.084       .  S
C2552      C2553   1.403       .  A
C2552      H2559   1.083       .  S
C2553      C2554   1.407       .  A
C2554      H2560   1.084       .  S
C2561      C2562   1.406       .  A
C2561      C2566   1.407       .  A
C2562      C2563   1.400       .  A
C2562      H2571   1.083       .  S
C2563      C2564   1.404       .  A
C2563      H2572   1.083       .  S
C2564      C2570   1.406       .  A
C2564      C2565   1.413       .  A
C2565      C2567   1.399       .  A
C2565      C2566   1.400       .  A
C2566      H2573   1.085       .  S
C2567      C2568   1.393       .  A
C2567      H2574   1.084       .  S
C2568      C2569   1.407       .  A
C2568      H2575   1.083       .  S
C2569      C2570   1.408       .  A
C2570      H2576   1.084       .  S
C2577      C2578   1.403       .  A
C2577      C2582   1.402       .  A
C2578      C2579   1.403       .  A
C2578      H2587   1.083       .  S
C2579      C2580   1.406       .  A
C2579      H2588   1.083       .  S
C2580      C2586   1.408       .  A
C2580      C2581   1.413       .  A
C2581      C2583   1.399       .  A
C2581      C2582   1.400       .  A
C2582      H2589   1.085       .  S
C2583      C2584   1.394       .  A
C2583      H2590   1.084       .  S
C2584      C2585   1.407       .  A
C2584      H2591   1.083       .  S
C2585      C2586   1.411       .  A
C2586      H2592   1.084       .  S
C2593      C2594   1.407       .  A
C2593      C2598   1.406       .  A
C2594      C2595   1.404       .  A
C2594      H2603   1.083       .  S
C2595      C2596   1.406       .  A
C2595      H2604   1.083       .  S
C2596      C2602   1.411       .  A
C2596      C2597   1.414       .  A
C2597      C2599   1.398       .  A
C2597      C2598   1.398       .  A
C2598      H2605   1.084       .  S
C2599      C2600   1.391       .  A
C2599      H2606   1.084       .  S
C2600      C2601   1.405       .  A
C2600      H2607   1.083       .  S
C2601      C2602   1.409       .  A
C2602      H2608   1.084       .  S
C2609      C2610   1.405       .  A
C2609      C2614   1.409       .  A
C2610      C2611   1.402       .  A
C2610      H2619   1.083       .  S
C2611      C2612   1.405       .  A
C2611      H2620   1.083       .  S
C2612      C2618   1.412       .  A
C2612      C2613   1.414       .  A
C2613      C2615   1.403       .  A
C2613      C2614   1.409       .  A
C2614      H2621   1.084       .  S
C2615      C2616   1.400       .  A
C2615      H2622   1.084       .  S
C2616      C2617   1.405       .  A
C2616      H2623   1.083       .  S
C2617      C2618   1.408       .  A
C2618      H2624   1.084       .  S
C2625      C2626   1.404       .  A
C2625      C2630   1.403       .  A
C2626      C2627   1.404       .  A
C2626      H2635   1.083       .  S
C2627      C2628   1.407       .  A
C2627      H2636   1.083       .  S
C2628      C2634   1.408       .  A
C2628      C2629   1.413       .  A
C2629      C2631   1.399       .  A
C2629      C2630   1.399       .  A
C2630      H2637   1.085       .  S
C2631      C2632   1.393       .  A
C2631      H2638   1.084       .  S
C2632      C2633   1.407       .  A
C2632      H2639   1.083       .  S
C2633      C2634   1.411       .  A
C2634      H2640   1.084       .  S
C2641      C2642   1.408       .  A
C2641      C2646   1.405       .  A
C2642      C2643   1.401       .  A
C2642      H2651   1.083       .  S
C2643      C2644   1.403       .  A
C2643      H2652   1.083       .  S
C2644      C2650   1.413       .  A
C2644      C2645   1.415       .  A
C2645      C2647   1.396       .  A
C2645      C2646   1.404       .  A
C2646      H2653   1.085       .  S
C2647      C2648   1.392       .  A
C2647      H2654   1.084       .  S
C2648      C2649   1.412       .  A
C2648      H2655   1.083       .  S
C2649      C2650   1.408       .  A
C2650      H2656   1.084       .  S
C2657      C2658   1.403       .  A
C2657      C2662   1.409       .  A
C2658      C2659   1.390       .  A
C2658      H2667   1.084       .  S
C2659      C2660   1.398       .  A
C2659      H2668   1.084       .  S
C2660      C2666   1.399       .  A
C2660      C2661   1.414       .  A
C2661      C2663   1.406       .  A
C2661      C2662   1.413       .  A
C2662      H2669   1.084       .  S
C2663      C2664   1.405       .  A
C2663      H2670   1.083       .  S
C2664      C2665   1.409       .  A
C2664      H2671   1.083       .  S
C2665      C2666   1.404       .  A
C2666      H2672   1.084       .  S
C2673      C2674   1.403       .  A
C2673      C2678   1.407       .  A
C2674      C2675   1.395       .  A
C2674      H2683   1.083   1_545  S
C2675      C2676   1.402       .  A
C2675      H2684   1.084       .  S
C2676      C2682   1.400       .  A
C2676      C2677   1.413       .  A
C2677      C2679   1.405       .  A
C2677      C2678   1.407       .  A
C2678      H2685   1.084       .  S
C2679      C2680   1.402       .  A
C2679      H2686   1.083       .  S
C2680      C2681   1.405       .  A
C2680      H2687   1.083       .  S
C2681      C2682   1.407       .  A
C2682      H2688   1.084       .  S
C2689      C2690   1.402       .  A
C2689      C2694   1.405       .  A
C2690      C2691   1.399       .  A
C2690      H2699   1.083       .  S
C2691      C2692   1.404       .  A
C2691      H2700   1.083       .  S
C2692      C2698   1.405       .  A
C2692      C2693   1.414       .  A
C2693      C2695   1.402       .  A
C2693      C2694   1.403       .  A
C2694      H2701   1.085       .  S
C2695      C2696   1.398       .  A
C2695      H2702   1.084       .  S
C2696      C2697   1.405       .  A
C2696      H2703   1.083       .  S
C2697      C2698   1.408       .  A
C2698      H2704   1.084       .  S
C2705      C2706   1.403       .  A
C2705      C2710   1.410       .  A
C2706      C2707   1.392       .  A
C2706      H2715   1.083       .  S
C2707      C2708   1.399       .  A
C2707      H2716   1.084       .  S
C2708      C2714   1.398   1_565  A
C2708      C2709   1.413       .  A
C2709      C2711   1.406   1_565  A
C2709      C2710   1.409       .  A
C2710      H2717   1.084       .  S
C2711      C2712   1.403       .  A
C2711      H2718   1.083       .  S
C2712      C2713   1.405       .  A
C2712      H2719   1.083       .  S
C2713      C2714   1.404       .  A
C2714      H2720   1.084       .  S
C2721      C2722   1.405       .  A
C2721      C2726   1.409       .  A
C2722      C2723   1.401       .  A
C2722      H2731   1.083       .  S
C2723      C2724   1.404       .  A
C2723      H2732   1.084       .  S
C2724      C2730   1.408       .  A
C2724      C2725   1.413       .  A
C2725      C2727   1.403       .  A
C2725      C2726   1.408       .  A
C2726      H2733   1.084       .  S
C2727      C2728   1.400       .  A
C2727      H2734   1.083       .  S
C2728      C2729   1.406       .  A
C2728      H2735   1.083       .  S
C2729      C2730   1.411       .  A
C2730      H2736   1.084       .  S
C2737      C2738   1.406       .  A
C2737      C2742   1.410       .  A
C2738      C2739   1.402       .  A
C2738      H2747   1.083       .  S
C2739      C2740   1.405       .  A
C2739      H2748   1.083       .  S
C2740      C2746   1.409       .  A
C2740      C2741   1.413       .  A
C2741      C2743   1.403       .  A
C2741      C2742   1.405       .  A
C2742      H2749   1.084       .  S
C2743      C2744   1.398       .  A
C2743      H2750   1.084       .  S
C2744      C2745   1.405       .  A
C2744      H2751   1.083       .  S
C2745      C2746   1.409       .  A
C2746      H2752   1.084       .  S
C2753      C2754   1.402       .  A
C2753      C2758   1.407       .  A
C2754      C2755   1.393       .  A
C2754      H2763   1.084       .  S
C2755      C2756   1.401       .  A
C2755      H2764   1.084       .  S
C2756      C2762   1.400       .  A
C2756      C2757   1.414       .  A
C2757      C2759   1.405       .  A
C2757      C2758   1.408       .  A
C2758      H2765   1.084       .  S
C2759      C2760   1.402       .  A
C2759      H2766   1.084       .  S
C2760      C2761   1.405       .  A
C2760      H2767   1.083       .  S
C2761      C2762   1.404       .  A
C2762      H2768   1.085       .  S
C2769      C2770   1.405       .  A
C2769      C2774   1.405       .  A
C2770      C2771   1.404       .  A
C2770      H2779   1.083       .  S
C2771      C2772   1.407       .  A
C2771      H2780   1.083       .  S
C2772      C2778   1.411       .  A
C2772      C2773   1.413       .  A
C2773      C2775   1.401       .  A
C2773      C2774   1.403       .  A
C2774      H2781   1.085       .  S
C2775      C2776   1.396       .  A
C2775      H2782   1.084       .  S
C2776      C2777   1.404       .  A
C2776      H2783   1.083       .  S
C2777      C2778   1.411       .  A
C2778      H2784   1.084       .  S
C2785      C2786   1.406       .  A
C2785      C2790   1.409       .  A
C2786      C2787   1.397       .  A
C2786      H2795   1.083       .  S
C2787      C2788   1.401       .  A
C2787      H2796   1.084       .  S
C2788      C2794   1.406       .  A
C2788      C2789   1.414       .  A
C2789      C2791   1.403       .  A
C2789      C2790   1.408       .  A
C2790      H2797   1.084       .  S
C2791      C2792   1.399       .  A
C2791      H2798   1.084       .  S
C2792      C2793   1.407       .  A
C2792      H2799   1.083       .  S
C2793      C2794   1.405       .  A
C2794      H2800   1.084       .  S
C2801      C2802   1.406       .  A
C2801      C2806   1.413       .  A
C2802      C2803   1.401       .  A
C2802      H2811   1.083       .  S
C2803      C2804   1.403       .  A
C2803      H2812   1.083       .  S
C2804      C2810   1.411       .  A
C2804      C2805   1.414       .  A
C2805      C2807   1.405       .  A
C2805      C2806   1.412       .  A
C2806      H2813   1.084       .  S
C2807      C2808   1.403       .  A
C2807      H2814   1.084       .  S
C2808      C2809   1.406       .  A
C2808      H2815   1.083   1_455  S
C2809      C2810   1.408       .  A
C2810      H2816   1.084       .  S
C2817      C2818   1.406       .  A
C2817      C2822   1.407       .  A
C2818      C2819   1.394       .  A
C2818      H2827   1.083       .  S
C2819      C2820   1.399       .  A
C2819      H2828   1.084       .  S
C2820      C2826   1.403       .  A
C2820      C2821   1.415       .  A
C2821      C2823   1.404       .  A
C2821      C2822   1.410       .  A
C2822      H2829   1.084       .  S
C2823      C2824   1.402       .  A
C2823      H2830   1.083       .  S
C2824      C2825   1.406       .  A
C2824      H2831   1.083       .  S
C2825      C2826   1.405       .  A
C2826      H2832   1.085       .  S
C2833      C2834   1.403       .  A
C2833      C2838   1.399       .  A
C2834      C2835   1.400       .  A
C2834      H2843   1.083       .  S
C2835      C2836   1.404       .  A
C2835      H2844   1.083       .  S
C2836      C2842   1.407       .  A
C2836      C2837   1.416       .  A
C2837      C2839   1.398       .  A
C2837      C2838   1.401       .  A
C2838      H2845   1.085       .  S
C2839      C2840   1.393       .  A
C2839      H2846   1.084       .  S
C2840      C2841   1.407       .  A
C2840      H2847   1.083       .  S
C2841      C2842   1.407       .  A
C2842      H2848   1.084       .  S
C2849      C2850   1.407       .  A
C2849      C2854   1.411       .  A
C2850      C2851   1.395       .  A
C2850      H2859   1.083       .  S
C2851      C2852   1.400       .  A
C2851      H2860   1.084       .  S
C2852      C2858   1.403       .  A
C2852      C2853   1.413       .  A
C2853      C2855   1.405       .  A
C2853      C2854   1.410       .  A
C2854      H2861   1.084       .  S
C2855      C2856   1.403       .  A
C2855      H2862   1.083       .  S
C2856      C2857   1.406       .  A
C2856      H2863   1.083       .  S
C2857      C2858   1.405       .  A
C2858      H2864   1.085   1_655  S
C2865      C2866   1.405       .  A
C2865      C2870   1.410       .  A
C2866      C2867   1.402       .  A
C2866      H2875   1.083   1_655  S
C2867      C2868   1.405       .  A
C2867      H2876   1.084       .  S
C2868      C2874   1.409       .  A
C2868      C2869   1.412       .  A
C2869      C2871   1.405       .  A
C2869      C2870   1.410       .  A
C2870      H2877   1.084       .  S
C2871      C2872   1.403       .  A
C2871      H2878   1.083       .  S
C2872      C2873   1.406       .  A
C2872      H2879   1.083       .  S
C2873      C2874   1.413       .  A
C2874      H2880   1.084       .  S
C2881      C2882   1.408       .  A
C2881      C2886   1.405       .  A
C2882      C2883   1.396       .  A
C2882      H2891   1.083       .  S
C2883      C2884   1.400       .  A
C2883      H2892   1.084       .  S
C2884      C2890   1.406       .  A
C2884      C2885   1.415       .  A
C2885      C2887   1.401       .  A
C2885      C2886   1.407       .  A
C2886      H2893   1.084       .  S
C2887      C2888   1.398       .  A
C2887      H2894   1.084       .  S
C2888      C2889   1.408       .  A
C2888      H2895   1.083       .  S
C2889      C2890   1.407       .  A
C2890      H2896   1.084       .  S
C2897      C2898   1.404       .  A
C2897      C2902   1.401       .  A
C2898      C2899   1.404       .  A
C2898      H2907   1.083       .  S
C2899      C2900   1.406       .  A
C2899      H2908   1.083       .  S
C2900      C2906   1.411       .  A
C2900      C2901   1.414       .  A
C2901      C2903   1.397       .  A
C2901      C2902   1.399       .  A
C2902      H2909   1.085       .  S
C2903      C2904   1.391       .  A
C2903      H2910   1.084       .  S
C2904      C2905   1.408       .  A
C2904      H2911   1.083       .  S
C2905      C2906   1.411       .  A
C2906      H2912   1.084       .  S
C2913      C2914   1.406       .  A
C2913      C2918   1.410       .  A
C2914      C2915   1.400       .  A
C2914      H2923   1.083       .  S
C2915      C2916   1.403       .  A
C2915      H2924   1.084       .  S
C2916      C2922   1.408       .  A
C2916      C2917   1.412       .  A
C2917      C2919   1.403       .  A
C2917      C2918   1.407       .  A
C2918      H2925   1.084       .  S
C2919      C2920   1.400       .  A
C2919      H2926   1.084       .  S
C2920      C2921   1.407       .  A
C2920      H2927   1.083       .  S
C2921      C2922   1.410       .  A
C2922      H2928   1.084       .  S
C2929      C2930   1.405       .  A
C2929      C2934   1.407       .  A
C2930      C2931   1.391       .  A
C2930      H2939   1.084       .  S
C2931      C2932   1.398       .  A
C2931      H2940   1.084       .  S
C2932      C2938   1.399       .  A
C2932      C2933   1.414       .  A
C2933      C2935   1.404       .  A
C2933      C2934   1.410       .  A
C2934      H2941   1.084       .  S
C2935      C2936   1.402       .  A
C2935      H2942   1.083       .  S
C2936      C2937   1.408       .  A
C2936      H2943   1.083       .  S
C2937      C2938   1.406       .  A
C2938      H2944   1.084       .  S
C2945      C2946   1.402       .  A
C2945      C2950   1.406       .  A
C2946      C2947   1.398       .  A
C2946      H2955   1.083       .  S
C2947      C2948   1.403       .  A
C2947      H2956   1.084       .  S
C2948      C2954   1.402       .  A
C2948      C2949   1.413       .  A
C2949      C2951   1.403       .  A
C2949      C2950   1.401       .  A
C2950      H2957   1.085       .  S
C2951      C2952   1.397       .  A
C2951      H2958   1.084       .  S
C2952      C2953   1.404       .  A
C2952      H2959   1.083       .  S
C2953      C2954   1.404       .  A
C2954      H2960   1.084       .  S
C2961      C2962   1.407       .  A
C2961      C2966   1.408       .  A
C2962      C2963   1.389       .  A
C2962      H2971   1.084       .  S
C2963      C2964   1.397       .  A
C2963      H2972   1.084       .  S
C2964      C2970   1.399       .  A
C2964      C2965   1.415       .  A
C2965      C2967   1.405       .  A
C2965      C2966   1.412       .  A
C2966      H2973   1.084       .  S
C2967      C2968   1.404       .  A
C2967      H2974   1.083       .  S
C2968      C2969   1.409       .  A
C2968      H2975   1.083       .  S
C2969      C2970   1.404       .  A
C2970      H2976   1.084       .  S
C2977      C2978   1.411       .  A
C2977      C2982   1.415       .  A
C2978      C2979   1.391       .  A
C2978      H2987   1.083       .  S
C2979      C2980   1.396       .  A
C2979      H2988   1.084       .  S
C2980      C2986   1.404       .  A
C2980      C2981   1.413       .  A
C2981      C2983   1.407       .  A
C2981      C2982   1.420       .  A
C2982      H2989   1.083       .  S
C2983      C2984   1.409       .  A
C2983      H2990   1.083       .  S
C2984      C2985   1.410       .  A
C2984      H2991   1.083       .  S
C2985      C2986   1.408       .  A
C2986      H2992   1.084       .  S
C2993      C2994   1.405       .  A
C2993      C2998   1.409       .  A
C2994      C2995   1.397       .  A
C2994      H3003   1.083       .  S
C2995      C2996   1.402       .  A
C2995      H3004   1.084       .  S
C2996      C3002   1.402       .  A
C2996      C2997   1.413       .  A
C2997      C2999   1.404       .  A
C2997      C2998   1.403       .  A
C2998      H3005   1.084       .  S
C2999      C3000   1.399       .  A
C2999      H3006   1.084       .  S
C3000      C3001   1.402       .  A
C3000      H3007   1.083       .  S
C3001      C3002   1.404       .  A
C3002      H3008   1.085       .  S
C3009      C3010   1.409       .  A
C3009      C3014   1.407       .  A
C3010      C3011   1.404       .  A
C3010      H3019   1.083       .  S
C3011      C3012   1.405       .  A
C3011      H3020   1.083       .  S
C3012      C3018   1.411       .  A
C3012      C3013   1.414       .  A
C3013      C3015   1.399       .  A
C3013      C3014   1.401       .  A
C3014      H3021   1.084       .  S
C3015      C3016   1.392       .  A
C3015      H3022   1.084       .  S
C3016      C3017   1.403       .  A
C3016      H3023   1.084       .  S
C3017      C3018   1.407       .  A
C3018      H3024   1.084       .  S
C3025      C3026   1.408       .  A
C3025      C3030   1.406       .  A
C3026      C3027   1.412       .  A
C3026      H3035   1.083       .  S
C3027      C3028   1.411       .  A
C3027      H3036   1.083       .  S
C3028      C3034   1.415       .  A
C3028      C3029   1.411       .  A
C3029      C3031   1.396       .  A
C3029      C3030   1.391       .  A
C3030      H3037   1.084       .  S
C3031      C3032   1.386       .  A
C3031      H3038   1.084       .  S
C3032      C3033   1.403       .  A
C3032      H3039   1.083       .  S
C3033      C3034   1.416       .  A
C3034      H3040   1.084       .  S
C3041      C3042   1.407       .  A
C3041      C3046   1.408       .  A
C3042      C3043   1.389       .  A
C3042      H3051   1.083       .  S
C3043      C3044   1.396       .  A
C3043      H3052   1.084       .  S
C3044      C3050   1.396       .  A
C3044      C3045   1.415       .  A
C3045      C3047   1.406       .  A
C3045      C3046   1.407       .  A
C3046      H3053   1.084       .  S
C3047      C3048   1.402       .  A
C3047      H3054   1.083       .  S
C3048      C3049   1.403       .  A
C3048      H3055   1.083       .  S
C3049      C3050   1.398       .  A
C3050      H3056   1.085       .  S
C3057      C3058   1.405       .  A
C3057      C3062   1.409       .  A
C3058      C3059   1.393       .  A
C3058      H3067   1.083       .  S
C3059      C3060   1.400       .  A
C3059      H3068   1.084       .  S
C3060      C3066   1.399       .  A
C3060      C3061   1.413       .  A
C3061      C3063   1.405       .  A
C3061      C3062   1.407       .  A
C3062      H3069   1.084       .  S
C3063      C3064   1.402       .  A
C3063      H3070   1.084       .  S
C3064      C3065   1.407       .  A
C3064      H3071   1.083       .  S
C3065      C3066   1.406       .  A
C3066      H3072   1.084       .  S
C3073      C3074   1.407       .  A
C3073      C3078   1.407       .  A
C3074      C3075   1.398       .  A
C3074      H3083   1.083       .  S
C3075      C3076   1.402       .  A
C3075      H3084   1.084       .  S
C3076      C3082   1.405       .  A
C3076      C3077   1.413       .  A
C3077      C3079   1.401       .  A
C3077      C3078   1.403       .  A
C3078      H3085   1.084       .  S
C3079      C3080   1.397       .  A
C3079      H3086   1.084       .  S
C3080      C3081   1.408       .  A
C3080      H3087   1.083       .  S
C3081      C3082   1.406       .  A
C3082      H3088   1.084       .  S
C3089      C3090   1.404       .  A
C3089      C3094   1.403       .  A
C3090      C3091   1.402       .  A
C3090      H3099   1.083       .  S
C3091      C3092   1.405       .  A
C3091      H3100   1.083       .  S
C3092      C3098   1.408       .  A
C3092      C3093   1.415       .  A
C3093      C3095   1.400       .  A
C3093      C3094   1.401       .  A
C3094      H3101   1.085       .  S
C3095      C3096   1.394       .  A
C3095      H3102   1.084       .  S
C3096      C3097   1.404       .  A
C3096      H3103   1.083       .  S
C3097      C3098   1.407       .  A
C3098      H3104   1.084       .  S
C3105      C3106   1.402       .  A
C3105      C3110   1.410       .  A
C3106      C3107   1.401       .  A
C3106      H3115   1.083       .  S
C3107      C3108   1.405       .  A
C3107      H3116   1.083       .  S
C3108      C3114   1.402       .  A
C3108      C3109   1.411       .  A
C3109      C3111   1.405       .  A
C3109      C3110   1.399       .  A
C3110      H3117   1.084       .  S
C3111      C3112   1.398       .  A
C3111      H3118   1.084       .  S
C3112      C3113   1.401       .  A
C3112      H3119   1.083       .  S
C3113      C3114   1.406       .  A
C3114      H3120   1.085       .  S
C3121      C3122   1.407       .  A
C3121      C3126   1.405       .  A
C3122      C3123   1.404       .  A
C3122      H3131   1.083       .  S
C3123      C3124   1.405       .  A
C3123      H3132   1.083       .  S
C3124      C3130   1.414       .  A
C3124      C3125   1.415       .  A
C3125      C3127   1.397       .  A
C3125      C3126   1.401       .  A
C3126      H3133   1.085       .  S
C3127      C3128   1.390       .  A
C3127      H3134   1.084       .  S
C3128      C3129   1.407       .  A
C3128      H3135   1.084       .  S
C3129      C3130   1.408       .  A
C3130      H3136   1.084       .  S
C3137      C3138   1.408       .  A
C3137      C3142   1.410       .  A
C3138      C3139   1.392       .  A
C3138      H3147   1.083       .  S
C3139      C3140   1.397       .  A
C3139      H3148   1.084       .  S
C3140      C3146   1.403       .  A
C3140      C3141   1.415       .  A
C3141      C3143   1.406       .  A
C3141      C3142   1.415       .  A
C3142      H3149   1.084       .  S
C3143      C3144   1.405       .  A
C3143      H3150   1.083       .  S
C3144      C3145   1.408       .  A
C3144      H3151   1.083       .  S
C3145      C3146   1.404       .  A
C3146      H3152   1.085       .  S
C3153      C3154   1.406       .  A
C3153      C3158   1.406       .  A
C3154      C3155   1.393   1_455  A
C3154      H3163   1.083   1_455  S
C3155      C3156   1.400       .  A
C3155      H3164   1.084       .  S
C3156      C3162   1.398       .  A
C3156      C3157   1.414   1_655  A
C3157      C3159   1.405       .  A
C3157      C3158   1.404       .  A
C3158      H3165   1.084       .  S
C3159      C3160   1.399       .  A
C3159      H3166   1.083       .  S
C3160      C3161   1.400   1_455  A
C3160      H3167   1.083       .  S
C3161      C3162   1.401       .  A
C3162      H3168   1.085       .  S
C3169      C3170   1.407       .  A
C3169      C3174   1.401       .  A
C3170      C3171   1.407       .  A
C3170      H3179   1.083       .  S
C3171      C3172   1.407       .  A
C3171      H3180   1.083       .  S
C3172      C3178   1.416       .  A
C3172      C3173   1.414       .  A
C3173      C3175   1.394       .  A
C3173      C3174   1.400       .  A
C3174      H3181   1.085       .  S
C3175      C3176   1.389       .  A
C3175      H3182   1.084       .  S
C3176      C3177   1.411       .  A
C3176      H3183   1.082       .  S
C3177      C3178   1.413       .  A
C3178      H3184   1.084       .  S
C3185      C3186   1.403       .  A
C3185      C3190   1.405       .  A
C3186      C3187   1.396       .  A
C3186      H3195   1.083       .  S
C3187      C3188   1.403       .  A
C3187      H3196   1.084       .  S
C3188      C3194   1.399       .  A
C3188      C3189   1.413       .  A
C3189      C3191   1.402       .  A
C3189      C3190   1.399       .  A
C3190      H3197   1.084       .  S
C3191      C3192   1.396       .  A
C3191      H3198   1.084       .  S
C3192      C3193   1.405       .  A
C3192      H3199   1.083       .  S
C3193      C3194   1.407       .  A
C3194      H3200   1.084       .  S
C3201      C3202   1.408       .  A
C3201      C3206   1.407       .  A
C3202      C3203   1.404       .  A
C3202      H3211   1.083       .  S
C3203      C3204   1.405       .  A
C3203      H3212   1.083       .  S
C3204      C3210   1.411       .  A
C3204      C3205   1.414       .  A
C3205      C3207   1.399   1_655  A
C3205      C3206   1.401       .  A
C3206      H3213   1.084       .  S
C3207      C3208   1.393       .  A
C3207      H3214   1.084       .  S
C3208      C3209   1.407   1_455  A
C3208      H3215   1.084       .  S
C3209      C3210   1.408       .  A
C3210      H3216   1.084       .  S
C3217      C3218   1.408       .  A
C3217      C3222   1.408       .  A
C3218      C3219   1.408       .  A
C3218      H3227   1.083       .  S
C3219      C3220   1.408       .  A
C3219      H3228   1.083       .  S
C3220      C3226   1.415       .  A
C3220      C3221   1.413       .  A
C3221      C3223   1.399       .  A
C3221      C3222   1.400       .  A
C3222      H3229   1.084       .  S
C3223      C3224   1.391       .  A
C3223      H3230   1.084       .  S
C3224      C3225   1.403       .  A
C3224      H3231   1.084       .  S
C3225      C3226   1.410       .  A
C3226      H3232   1.084       .  S
C3233      C3234   1.403       .  A
C3233      C3238   1.412       .  A
C3234      C3235   1.397       .  A
C3234      H3243   1.083       .  S
C3235      C3236   1.403       .  A
C3235      H3244   1.084       .  S
C3236      C3242   1.401       .  A
C3236      C3237   1.411       .  A
C3237      C3239   1.405       .  A
C3237      C3238   1.404       .  A
C3238      H3245   1.084       .  S
C3239      C3240   1.400       .  A
C3239      H3246   1.084       .  S
C3240      C3241   1.405       .  A
C3240      H3247   1.083       .  S
C3241      C3242   1.408       .  A
C3242      H3248   1.084       .  S
C3249      C3250   1.406   1_455  A
C3249      C3254   1.411       .  A
C3250      C3251   1.395   1_655  A
C3250      H3259   1.083       .  S
C3251      C3252   1.401       .  A
C3251      H3260   1.084   1_455  S
C3252      C3258   1.404       .  A
C3252      C3253   1.413       .  A
C3253      C3255   1.406       .  A
C3253      C3254   1.413       .  A
C3254      H3261   1.084       .  S
C3255      C3256   1.405       .  A
C3255      H3262   1.083       .  S
C3256      C3257   1.407       .  A
C3256      H3263   1.083       .  S
C3257      C3258   1.409       .  A
C3258      H3264   1.084       .  S
