geometry optimzed in LAMMPS
_audit_creation_date              2020-11-30 
_audit_creation_method            'lammps2cif' 
_symmetry_space_group_name_H-M    'P1' 
_symmetry_Int_Tables_number       1 
_symmetry_cell_setting            triclinic 
loop_ 
_symmetry_equiv_pos_as_xyz 
  x,y,z 
_cell_length_a                    32.98626656 
_cell_length_b                    32.79408731415995 
_cell_length_c                    26.394757312721563 
_cell_angle_alpha                 90.35110852110525 
_cell_angle_beta                  89.95987367527411 
_cell_angle_gamma                 120.71357389724484 
loop_ 
_atom_site_label 
_atom_site_type_symbol 
_atom_site_fract_x 
_atom_site_fract_y 
_atom_site_fract_z 
_atom_site_charge 
C1          C  0.34156632  0.66865706  0.19390858     0.46100
H2          H  0.34207241  0.67026091  0.15198850    -0.02900
C3          C  0.34066658  0.66608415  0.29192198     0.46100
H4          H  0.33996962  0.66483143  0.33382338    -0.02900
C5          C  0.36814679  0.71942678  0.21824884    -0.16600
C6          C  0.29010547  0.64311367  0.21583663    -0.16400
C7          C  0.36593456  0.64180481  0.21529432    -0.16800
C8          C  0.36813986  0.71819570  0.27109583    -0.16700
C9          C  0.28953552  0.64224355  0.26876157    -0.16300
C10         C  0.36518619  0.64000597  0.26806145    -0.16600
N11         N  0.09412912  0.31065362  0.71430886    -0.36000
N12         N  0.13153738  0.27695698  0.63347934    -0.56500
N13         N  0.21393277  0.31222908  0.70089485    -0.36000
N14         N  0.17256427  0.34004290  0.78035060    -0.56500
C15         C  0.06022510  0.29384410  0.67877179     0.27600
C16         C  0.07660632  0.31960109  0.75625997     0.27600
C17         C  0.22214094  0.28777560  0.66506813     0.27600
C18         C  0.24495284  0.32206395  0.73907995     0.27600
C19         C  0.10289256  0.28670815  0.60607059     0.36200
C20         C  0.16326054  0.27803306  0.60026994     0.36200
C21         C  0.15072098  0.35881460  0.80626426     0.36200
C22         C  0.21698725  0.36158892  0.79810873     0.36200
C23         C  0.01958857  0.28998607  0.69878569    -0.21300
C24         C  0.02973284  0.30570008  0.74820880    -0.21300
C25         C  0.25881916  0.28170511  0.68104896    -0.21300
C26         C  0.27317107  0.30330840  0.72779468    -0.21300
C27         C  0.11371665  0.28979253  0.55509294    -0.22300
C28         C  0.15144406  0.28325130  0.55121296    -0.22300
C29         C  0.18063590  0.39066674  0.84257957    -0.22300
C30         C  0.22274562  0.39236649  0.83749961    -0.22300
C31         C  0.07073257  0.29817258  0.62707974    -0.17700
C32         C  0.10440409  0.34826100  0.79684967    -0.17700
C33         C  0.25173091  0.35227620  0.78058184    -0.17700
C34         C  0.20740170  0.28397757  0.61418862    -0.17700
H35         H  0.98761150  0.28109099  0.67840736     0.15200
H36         H  0.00672080  0.31054727  0.77358703     0.15200
H37         H  0.27556911  0.26597664  0.65994922     0.15200
H38         H  0.30248026  0.30677281  0.74974848     0.15200
H39         H  0.09762325  0.29827538  0.52435848     0.13500
H40         H  0.17083423  0.28668401  0.51683687     0.13500
H41         H  0.17317661  0.41105834  0.86941693     0.13500
H42         H  0.25399152  0.41405543  0.86008780     0.13500
H43         H  0.12944541  0.32540758  0.70581020     0.26800
H44         H  0.19538865  0.32948332  0.69488031     0.26800
N45         N  0.10083299  0.80064603  0.73552748    -0.36000
N46         N  0.18965742  0.85511857  0.78570928    -0.56500
N47         N  0.23611281  0.90737109  0.69480820    -0.36000
N48         N  0.14904753  0.85777772  0.64470355    -0.56500
C49         C  0.09404210  0.77461349  0.77763623     0.27600
C50         C  0.07744140  0.76935190  0.69770427     0.27600
C51         C  0.27174809  0.90730753  0.71995874     0.27600
C52         C  0.24911363  0.91592537  0.64573226     0.27600
C53         C  0.16237142  0.83475905  0.82653964     0.36200
C54         C  0.23348402  0.88437016  0.80336658     0.36200
C55         C  0.10666151  0.82553456  0.62622280     0.36200
C56         C  0.17164470  0.88936601  0.60759633     0.36200
C57         C  0.06251942  0.72702248  0.76731794    -0.21300
C58         C  0.05240483  0.72370633  0.71679876    -0.21300
C59         C  0.30782147  0.91613100  0.68685231    -0.21300
C60         C  0.29381558  0.92209998  0.64010250    -0.21300
C61         C  0.18846175  0.85300576  0.87063654    -0.22300
C62         C  0.23377867  0.88468178  0.85589007    -0.22300
C63         C  0.10113886  0.83771629  0.57763183    -0.22300
C64         C  0.14199197  0.87932761  0.56632255    -0.22300
C65         C  0.11951408  0.79161914  0.82345816    -0.17700
C66         C  0.08157111  0.77969526  0.64563199    -0.17700
C67         C  0.22101632  0.91684573  0.60572699    -0.17700
C68         C  0.27361991  0.90237146  0.77258004    -0.17700
H69         H  0.05072008  0.69712382  0.79244172     0.15200
H70         H  0.03083972  0.69100860  0.69599130     0.15200
H71         H  0.34091824  0.91823741  0.69547984     0.15200
H72         H  0.31403269  0.92866489  0.60590559     0.15200
H73         H  0.17696297  0.84139102  0.90901826     0.13500
H74         H  0.26406329  0.90292452  0.88074699     0.13500
H75         H  0.07249233  0.81658212  0.55160076     0.13500
H76         H  0.15111589  0.89621391  0.52962090     0.13500
H77         H  0.12156234  0.83738385  0.73254686     0.26800
H78         H  0.20643516  0.90579850  0.71079227     0.26800
N79         N  0.80025292  0.72566425  0.28501750    -0.36000
N80         N  0.84731852  0.71339833  0.19631508    -0.56500
N81         N  0.92235334  0.73714693  0.26614974    -0.36000
N82         N  0.87678089  0.75088376  0.35752361    -0.56500
C83         C  0.77112233  0.72087226  0.24671767     0.27600
C84         C  0.78692823  0.74013251  0.32642776     0.27600
C85         C  0.94199170  0.73284412  0.22320144     0.27600
C86         C  0.95431323  0.75033462  0.30355619     0.27600
C87         C  0.80179696  0.68885601  0.18154270     0.36200
C88         C  0.86870578  0.69288600  0.17236798     0.36200
C89         C  0.83993358  0.73644654  0.38956818     0.36200
C90         C  0.90534238  0.73750103  0.37910237     0.36200
C91         C  0.73947543  0.73390981  0.26327623    -0.21300
C92         C  0.74941859  0.74602531  0.31375203    -0.21300
C93         C  0.98899380  0.74802922  0.23216478    -0.21300
C94         C  0.99669698  0.75885681  0.28307557    -0.21300
C95         C  0.79498438  0.65502419  0.14542725    -0.22300
C96         C  0.83714921  0.65708801  0.14017825    -0.22300
C97         C  0.84761636  0.71846061  0.43357253    -0.22300
C98         C  0.88889728  0.71868398  0.42667137    -0.22300
C99         C  0.76544150  0.69405252  0.20271835    -0.17700
C100        C  0.79599904  0.73095269  0.37586978    -0.17700
C101        C  0.94002686  0.73292927  0.35270357    -0.17700
C102        C  0.91529859  0.70366772  0.18216546    -0.17700
H103        H  0.70970381  0.73072406  0.24248556     0.15200
H104        H  0.72830053  0.75332489  0.33945860     0.15200
H105        H  0.01326165  0.74561742  0.20643044     0.15200
H106        H  0.02772238  0.76537361  0.30390495     0.15200
H107        H  0.76240667  0.62947654  0.12693125     0.13500
H108        H  0.84282380  0.63307130  0.11717629     0.13500
H109        H  0.82379421  0.70273811  0.46522936     0.13500
H110        H  0.90324081  0.70324930  0.45188329     0.13500
H111        H  0.81908742  0.70829850  0.28631775     0.26800
H112        H  0.88658626  0.71995155  0.27294406     0.26800
O113        O  0.08070104  0.60322630  0.94641763    -0.77900
C114        C  0.11651915  0.56535127  0.08710700     0.83200
O115        O  0.00363013  0.43040189  0.93423786    -0.79000
O116        O  0.97584704  0.44554982  0.10631469    -0.80500
O117        O  0.94406174  0.56348259  0.03502800    -0.80300
O118        O  0.01078443  0.59805236  0.93965732    -0.78900
Zn119      Zn  0.06764382  0.54224913  0.98054085     1.55700
O120        O  0.97724910  0.55337041  0.10395445    -0.80300
Cd121      Cd  0.96392789  0.53739636  0.97543070     1.59700
Cd122      Cd  0.96084477  0.44328887  0.97740645     1.59600
O123        O  0.90664291  0.49576135  0.92473045    -0.80300
O124        O  0.00124539  0.50980506  0.00276083    -1.90800
Cd125      Cd  0.00670730  0.51423079  0.07879144     1.59900
O126        O  0.90212028  0.42630858  0.92897659    -0.80200
O127        O  0.07645442  0.54991597  0.10819403    -0.78900
C128        C  0.04599728  0.45409838  0.91901579     0.83600
C129        C  0.05526001  0.62055868  0.93347787     0.83300
O130        O  0.11863735  0.56254995  0.03879108    -0.77800
C131        C  0.95525369  0.57094388  0.08183568     0.84100
O132        O  0.07402619  0.49745840  0.93154579    -0.77900
C133        C  0.88706626  0.45228130  0.91078435     0.84200
C134        C  0.95563776  0.40468451  0.08503301     0.84600
O135        O  0.94546638  0.39863206  0.03788266    -0.80400
O136        O  0.11156876  0.55720671  0.44019639    -0.77900
C137        C  0.03939831  0.60685864  0.54420330     0.83200
O138        O  0.98514052  0.41219381  0.51543758    -0.79000
O139        O  0.89765324  0.48921992  0.54992155    -0.80500
O140        O  0.97914088  0.55599949  0.37289211    -0.80300
O141        O  0.07274130  0.54109589  0.36768568    -0.78900
Zn142      Zn  0.05678447  0.53115921  0.49612645     1.55700
O143        O  0.93009822  0.54980073  0.43553745    -0.80300
Cd144      Cd  0.00216556  0.50994256  0.39347608     1.59700
Cd145      Cd  0.94500610  0.43602304  0.48747474     1.59600
O146        O  0.97319272  0.44118938  0.36672608    -0.80300
O147        O  0.99217128  0.50227325  0.46873539    -1.90800
Cd148      Cd  0.95126075  0.52555760  0.49459781     1.59900
O149        O  0.91552201  0.39977754  0.42196119    -0.80200
O150        O  0.99714214  0.58448270  0.52896366    -0.78900
C151        C  0.02663135  0.42952817  0.53263664     0.83600
C152        C  0.11175202  0.55761213  0.39149535     0.83300
O153        O  0.06694862  0.59011155  0.53861145    -0.77800
C154        C  0.95220732  0.56817960  0.39460307     0.84100
O155        O  0.05671713  0.47449229  0.53219597    -0.77900
C156        C  0.94166834  0.40192946  0.38552796     0.84200
C157        C  0.87850757  0.44605976  0.56350955     0.84600
O158        O  0.89175341  0.41966985  0.54249156    -0.80400
N159        N  0.80345054  0.10018727  0.29619619    -0.36000
N160        N  0.84989699  0.16080586  0.20893784    -0.56500
N161        N  0.92743275  0.21088525  0.27608970    -0.36000
N162        N  0.88312009  0.14898699  0.36651717    -0.56500
C163        C  0.77295673  0.07643995  0.25820726     0.27600
C164        C  0.79135286  0.07038610  0.33576684     0.27600
C165        C  0.94680694  0.23572986  0.23346165     0.27600
C166        C  0.96042668  0.22828058  0.31275006     0.27600
C167        C  0.80453777  0.14008199  0.19419471     0.36200
C168        C  0.87316601  0.20186447  0.18316160     0.36200
C169        C  0.84696884  0.12590415  0.39939882     0.36200
C170        C  0.91362427  0.19078740  0.38909206     0.36200
C171        C  0.74158792  0.03037953  0.27297888    -0.21300
C172        C  0.75328268  0.02648858  0.32204907    -0.21300
C173        C  0.99420961  0.26758587  0.24180736    -0.21300
C174        C  0.00281367  0.26285616  0.29192666    -0.21300
C175        C  0.79944509  0.16617138  0.15623006    -0.22300
C176        C  0.84299058  0.20553392  0.14937306    -0.22300
C177        C  0.85664033  0.15097452  0.44455625    -0.22300
C178        C  0.89872950  0.19242046  0.43774873    -0.22300
C179        C  0.76750168  0.09845919  0.21544695    -0.17700
C180        C  0.80252594  0.08675923  0.38609853    -0.17700
C181        C  0.94761941  0.23118207  0.36271644    -0.17700
C182        C  0.92021383  0.23778184  0.19278953    -0.17700
H183        H  0.71138525  0.00361717  0.25198476     0.15200
H184        H  0.73319709  0.99632706  0.34647078     0.15200
H185        H  0.01855566  0.29486418  0.21628748     0.15200
H186        H  0.03473655  0.28687417  0.31241419     0.15200
H187        H  0.76741212  0.15867617  0.13689258     0.13500
H188        H  0.85083629  0.23445399  0.12403968     0.13500
H189        H  0.83377188  0.14232915  0.47711853     0.13500
H190        H  0.91476516  0.22205531  0.46392808     0.13500
H191        H  0.82297755  0.13688817  0.29921871     0.26800
H192        H  0.89180267  0.19280661  0.28405204     0.26800
N193        N  0.30629222  0.09418464  0.25674213    -0.36000
N194        N  0.27461222  0.13726635  0.17896596    -0.56500
N195        N  0.29978048  0.24132021  0.26717978    -0.36000
N196        N  0.30971289  0.14862785  0.34452177    -0.56500
C197        C  0.29551699  0.06612138  0.21507920     0.27600
C198        C  0.31646923  0.07279296  0.29440893     0.27600
C199        C  0.27118528  0.21188899  0.23047538     0.27600
C200        C  0.28634807  0.21630639  0.31051787     0.27600
C201        C  0.29187548  0.11682374  0.14845126     0.36200
C202        C  0.27943078  0.17517294  0.15372266     0.36200
C203        C  0.33451230  0.13035283  0.36435614     0.36200
C204        C  0.32088612  0.18792435  0.37187762     0.36200
C205        C  0.29540350  0.02514285  0.22729985    -0.21300
C206        C  0.30911542  0.02947457  0.27685507    -0.21300
C207        C  0.23463669  0.17114055  0.25201189    -0.21300
C208        C  0.24444215  0.17383312  0.30291326    -0.21300
C209        C  0.30375824  0.13889927  0.10173688    -0.22300
C210        C  0.29573963  0.17598459  0.10502386    -0.22300
C211        C  0.35756781  0.15495412  0.40806285    -0.22300
C212        C  0.34953544  0.19205676  0.41231222    -0.22300
C213        C  0.30317693  0.08332153  0.16513714    -0.17700
C214        C  0.34093289  0.09579703  0.33969557    -0.17700
C215        C  0.31789641  0.22571861  0.35075655    -0.17700
C216        C  0.28560590  0.21564143  0.17966374    -0.17700
H217        H  0.29147173  0.99764147  0.20134108     0.15200
H218        H  0.31567584  0.00434474  0.29564916     0.15200
H219        H  0.20731626  0.14022009  0.23230555     0.15200
H220        H  0.22617037  0.14544839  0.32990421     0.15200
H221        H  0.32029541  0.13171351  0.07027644     0.13500
H222        H  0.30615873  0.20363292  0.07712577     0.13500
H223        H  0.38112840  0.14941333  0.43166642     0.13500
H224        H  0.36694921  0.22143937  0.43857939     0.13500
H225        H  0.31585142  0.12979972  0.25624501     0.26800
H226        H  0.33192739  0.27262514  0.26155934     0.26800
N227        N  0.61492425  0.74151090  0.78436973    -0.36000
N228        N  0.54611834  0.76552853  0.76380589    -0.56500
N229        N  0.61447284  0.85690497  0.78768299    -0.36000
N230        N  0.69576836  0.83927401  0.81151752    -0.56500
C231        C  0.58658790  0.70714641  0.75138877     0.27600
C232        C  0.65734774  0.74475145  0.78356819     0.27600
C233        C  0.58696748  0.86527594  0.75677195     0.27600
C234        C  0.65715972  0.89648941  0.79041141     0.27600
C235        C  0.51876464  0.71868905  0.75792439     0.36200
C236        C  0.51876869  0.78443184  0.75874552     0.36200
C237        C  0.70554982  0.81067612  0.83870205     0.36200
C238        C  0.70397464  0.87546204  0.84252646     0.36200
C239        C  0.61158892  0.68840080  0.72868624    -0.21300
C240        C  0.65614350  0.71175449  0.74975345    -0.21300
C241        C  0.61320165  0.91119721  0.73843062    -0.21300
C242        C  0.65723354  0.93125751  0.76083898    -0.21300
C243        C  0.47216596  0.70663183  0.75155193    -0.22300
C244        C  0.47213304  0.74871336  0.75232831    -0.22300
C245        C  0.72425165  0.83095303  0.88554860    -0.22300
C246        C  0.72322972  0.87240200  0.88798692    -0.22300
C247        C  0.53818820  0.69102570  0.74403333    -0.17700
C248        C  0.68760857  0.76287707  0.82537911    -0.17700
C249        C  0.68605164  0.90531622  0.83277702    -0.17700
C250        C  0.53821665  0.83282158  0.74824541    -0.17700
H251        H  0.59861639  0.65952909  0.70155385     0.15200
H252        H  0.68340204  0.70325273  0.74345905     0.15200
H253        H  0.60134309  0.92926783  0.71376751     0.15200
H254        H  0.68495829  0.96808300  0.75858314     0.15200
H255        H  0.44240960  0.67198845  0.74231110     0.13500
H256        H  0.44223031  0.75279573  0.74430391     0.13500
H257        H  0.73309232  0.81521555  0.91635237     0.13500
H258        H  0.73138667  0.89513707  0.92092389     0.13500
H259        H  0.60442551  0.75737618  0.81165024     0.26800
H260        H  0.60337632  0.82849674  0.81226529     0.26800
O261        O  0.38889056  0.94561442  0.51061960    -0.77900
C262        C  0.44941190  0.88779815  0.40685877     0.83200
O263        O  0.52334938  0.95939276  0.60150832    -0.79000
O264        O  0.59219858  0.02372813  0.43133149    -0.80500
O265        O  0.50999508  0.08764996  0.44342361    -0.80300
O266        O  0.41702337  0.02359116  0.51291907    -0.78900
Zn267      Zn  0.44358465  0.93464634  0.50801905     1.55700
O268        O  0.49379309  0.02969818  0.38868354    -0.80300
Cd269      Cd  0.48868736  0.05130363  0.51003950     1.59700
Cd270      Cd  0.55085644  0.01434048  0.55142959     1.59600
O271        O  0.52318044  0.09936971  0.57133181    -0.80300
O272        O  0.50003021  0.99693420  0.50064699    -1.90800
Cd273      Cd  0.51971130  0.99436048  0.42921201     1.59900
O274        O  0.57426830  0.07807316  0.59399560    -0.80200
O275        O  0.48607330  0.92649851  0.39357879    -0.78900
C276        C  0.48394819  0.92070721  0.60550879     0.83600
C277        C  0.38258050  0.98096848  0.51158268     0.83300
O278        O  0.42978945  0.88547693  0.44945472    -0.77800
C279        C  0.49000445  0.06465675  0.40322975     0.84100
O280        O  0.45031439  0.90731715  0.57362237    -0.77900
C281        C  0.55824646  0.10615377  0.59843488     0.84200
C282        C  0.62054981  0.02816871  0.46697431     0.84600
O283        O  0.60864656  0.02081978  0.51354527    -0.80400
O284        O  0.43358932  0.53505057  0.43749653    -0.77900
C285        C  0.38294687  0.39598579  0.51345882     0.83200
O286        O  0.52737612  0.55156529  0.59222297    -0.79000
O287        O  0.52322312  0.40977347  0.55613501    -0.80500
O288        O  0.48554010  0.44929357  0.37821709    -0.80300
O289        O  0.49025897  0.55280602  0.38265566    -0.78900
Zn290      Zn  0.44912787  0.50176606  0.49569419     1.55700
O291        O  0.49781357  0.40371586  0.43057888    -0.80300
Cd292      Cd  0.51937017  0.51373258  0.41719203     1.59700
Cd293      Cd  0.55304162  0.52372191  0.54068441     1.59600
O294        O  0.59243638  0.55649462  0.41892680    -0.80300
O295        O  0.50201062  0.49183503  0.48911082    -1.90800
Cd296      Cd  0.48580936  0.42407036  0.49946902     1.59900
O297        O  0.61019216  0.57583201  0.50153088    -0.80200
O298        O  0.41403106  0.38382816  0.51363159    -0.78900
C299        C  0.49010049  0.55406956  0.59415249     0.83600
C300        C  0.45355578  0.55419804  0.39560291     0.83300
O301        O  0.39365826  0.43853935  0.50528911    -0.77800
C302        C  0.47846734  0.40881542  0.39148027     0.84100
O303        O  0.45854279  0.53764898  0.55979031    -0.77900
C304        C  0.62109494  0.58142290  0.45454823     0.84200
C305        C  0.55733287  0.43725126  0.58561056     0.84600
O306        O  0.57379491  0.48200715  0.58366984    -0.80400
O307        O  0.45635920  0.88963811  0.03936193    -0.77900
C308        C  0.43096350  0.95483604  0.89994035     0.83200
O309        O  0.60525191  0.01898858  0.95344267    -0.79000
O310        O  0.52818154  0.10620389  0.93282495    -0.80500
O311        O  0.45495402  0.02975327  0.09381212    -0.80300
O312        O  0.46430470  0.93152009  0.10874928    -0.78900
Zn313      Zn  0.48876181  0.94284871  0.98254331     1.55700
O314        O  0.43963935  0.04819439  0.01717417    -0.80300
Cd315      Cd  0.49799919  0.00187204  0.08030765     1.59700
Cd316      Cd  0.57947810  0.05443078  0.99069569     1.59600
O317        O  0.56175303  0.03505166  0.11844266    -0.80300
O318        O  0.51173630  0.00828452  0.00587350    -1.90800
Cd319      Cd  0.48402578  0.04124812  0.96970157     1.59900
O320        O  0.61560931  0.06985137  0.05696460    -0.80200
O321        O  0.44439129  0.99684613  0.91439034    -0.78900
C322        C  0.58933647  0.97527939  0.94549879     0.83600
C323        C  0.45071140  0.89149686  0.08733614     0.83300
O324        O  0.44383643  0.92890383  0.92261093    -0.77800
C325        C  0.43320597  0.04341663  0.06472470     0.84100
O326        O  0.54683070  0.94356052  0.95613578    -0.77900
C327        C  0.60421213  0.05702373  0.10268094     0.84200
C328        C  0.57254953  0.12877058  0.92518259     0.84600
O329        O  0.59812162  0.11434688  0.94527699    -0.80400
O330        O  0.42594131  0.48489329  0.93121336    -0.77900
C331        C  0.44466914  0.54844921  0.08611504     0.83200
O332        O  0.59295462  0.56960784  0.94807585    -0.79000
O333        O  0.56037703  0.53069188  0.11797007    -0.80500
O334        O  0.43905019  0.37707801  0.03733935    -0.80300
O335        O  0.42604032  0.41680989  0.93220257    -0.78900
Zn336      Zn  0.47824716  0.52748968  0.98228900     1.55700
O337        O  0.45469443  0.42138586  0.10800026    -0.80300
Cd338      Cd  0.47631163  0.42413307  0.98039422     1.59700
Cd339      Cd  0.57181538  0.51282994  0.99223802     1.59600
O340        O  0.51930018  0.40715021  0.93477106    -0.80300
O341        O  0.50435045  0.48943178  0.00905370    -1.90800
Cd342      Cd  0.49522192  0.49019138  0.08407692     1.59900
O343        O  0.58993948  0.46934468  0.94929587    -0.80200
O344        O  0.45825987  0.52322613  0.10863475    -0.78900
C345        C  0.57581712  0.59519851  0.93651790     0.83600
C346        C  0.40942758  0.44184141  0.91669847     0.83300
O347        O  0.45077556  0.55469360  0.03805450    -0.77800
C348        C  0.43296980  0.38192012  0.08425728     0.84100
O349        O  0.53331013  0.58343339  0.94698737    -0.77900
C350        C  0.56375680  0.42972607  0.92665376     0.84200
C351        C  0.60208377  0.55210996  0.10010200     0.84600
O352        O  0.61191989  0.54541684  0.05524425    -0.80400
C353        C  0.66737132  0.32842738  0.69789095     0.46100
H354        H  0.66248881  0.32454469  0.65661605    -0.02900
C355        C  0.67706846  0.33813464  0.79506373     0.46100
H356        H  0.68128811  0.34161036  0.83688670    -0.02900
C357        C  0.64676576  0.27979122  0.72602047    -0.16600
C358        C  0.72071614  0.35886177  0.71387173    -0.16400
C359        C  0.64187334  0.35377340  0.72104507    -0.16800
C360        C  0.65200278  0.28541044  0.77790739    -0.16700
C361        C  0.72541898  0.36402969  0.76661430    -0.16300
C362        C  0.64653330  0.35804408  0.77378111    -0.16600
C363        C  0.62418396  0.37750756  0.81061719     0.00500
C364        C  0.65151128  0.40680608  0.85131237    -0.11400
C365        C  0.63305962  0.42362317  0.88904629     0.02700
C366        C  0.58495898  0.41069058  0.88837842     0.00400
C367        C  0.55697530  0.38030079  0.84851861    -0.11300
C368        C  0.57576284  0.36384372  0.81036196     0.02600
H369        H  0.68785536  0.41643622  0.85446578     0.15600
H370        H  0.51996184  0.36944436  0.84678307     0.15600
C371        C  0.54358144  0.33143128  0.77281467     0.37200
C372        C  0.66446554  0.45287584  0.92907832     0.37100
N373        N  0.51709613  0.30585022  0.74280563    -0.43100
N374        N  0.68990704  0.47624155  0.96104485    -0.43100
C375        C  0.59437532  0.17083685  0.88999166     0.00500
C376        C  0.62972629  0.17633618  0.85602914    -0.11400
C377        C  0.64881265  0.21279170  0.81958585     0.02700
C378        C  0.63273764  0.24531226  0.81593968     0.00400
C379        C  0.59870759  0.24100472  0.85124970    -0.11300
C380        C  0.57948748  0.20437533  0.88764982     0.02600
H381        H  0.64213505  0.15144800  0.85739417     0.15600
H382        H  0.58682913  0.26632771  0.85022941     0.15600
C383        C  0.54609945  0.20329438  0.92375804     0.37200
C384        C  0.68610017  0.21655348  0.78790678     0.37100
N385        N  0.51966762  0.20258539  0.95310642    -0.43100
N386        N  0.71593151  0.21819021  0.76333570    -0.43100
C387        C  0.57830737  0.41642506  0.62199528     0.00500
C388        C  0.57044204  0.37053121  0.61297413    -0.11400
C389        C  0.58985685  0.34965650  0.64415545     0.02700
C390        C  0.61818292  0.37404376  0.68728559     0.00400
C391        C  0.62539457  0.41975235  0.69689123    -0.11300
C392        C  0.60603722  0.44070492  0.66537943     0.02600
H393        H  0.54923634  0.35063985  0.58052703     0.15600
H394        H  0.64702647  0.43984391  0.72897532     0.15600
C395        C  0.61456236  0.48699156  0.67950892     0.37200
C396        C  0.57886869  0.30254896  0.63017580     0.37100
N397        N  0.62135101  0.52406609  0.69109657    -0.43100
N398        N  0.56972471  0.26517045  0.61666765    -0.43100
C399        C  0.62320530  0.23198496  0.69852398     0.00500
C400        C  0.65095161  0.21746457  0.67245727    -0.11400
C401        C  0.63080933  0.17627682  0.64142876     0.02700
C402        C  0.58120875  0.14799601  0.63507754     0.00400
C403        C  0.55328720  0.16085846  0.66380395    -0.11300
C404        C  0.57368623  0.20124259  0.69622493     0.02600
H405        H  0.68897242  0.23915952  0.67543511     0.15600
H406        H  0.51521397  0.13902896  0.66126163     0.15600
C407        C  0.54285489  0.21019843  0.72683188     0.37200
C408        C  0.66224683  0.16544011  0.61439333     0.37100
N409        N  0.51770853  0.21631326  0.75201015    -0.43100
N410        N  0.68754911  0.15685920  0.59274547    -0.43100
C411        C  0.48619190  0.58130852  0.63530878     0.00500
C412        C  0.49084941  0.62462674  0.62213713    -0.11400
C413        C  0.50502994  0.66033494  0.65818330     0.02700
C414        C  0.51149219  0.65128387  0.70885455     0.00400
C415        C  0.50091821  0.60585390  0.72320058    -0.11300
C416        C  0.48920796  0.57087699  0.68636665     0.02600
H417        H  0.48919820  0.63256988  0.58257360     0.15600
H418        H  0.50615617  0.59924215  0.76218702     0.15600
C419        C  0.48358094  0.52595730  0.70116841     0.37200
C420        C  0.51946734  0.70748841  0.64067631     0.37100
N421        N  0.47912848  0.49005081  0.71334668    -0.43100
N422        N  0.53176988  0.74524883  0.62611709    -0.43100
C423        C  0.51031474  0.84775080  0.71780971     0.00500
C424        C  0.49336607  0.82617941  0.67026936    -0.11400
C425        C  0.47705570  0.84593787  0.63503858     0.02700
C426        C  0.47988781  0.88922371  0.64659076     0.00400
C427        C  0.49156148  0.90786045  0.69595830    -0.11300
C428        C  0.50554182  0.88652672  0.73216943     0.02600
H429        H  0.49572341  0.79561261  0.65935120     0.15600
H430        H  0.49271054  0.94072300  0.70514038     0.15600
C431        C  0.51733370  0.90635361  0.78271208     0.37200
C432        C  0.46250595  0.82399372  0.58556450     0.37100
N433        N  0.52650744  0.92194652  0.82335137    -0.43100
N434        N  0.45052451  0.80628654  0.54605379    -0.43100
C435        C  0.67204510  0.72744553  0.86639190     0.00500
C436        C  0.63589674  0.72372196  0.89769075    -0.11400
C437        C  0.60365247  0.68104262  0.92017263     0.02700
C438        C  0.60822731  0.64103206  0.91268493     0.00400
C439        C  0.64784645  0.64627272  0.88633671    -0.11300
C440        C  0.67979196  0.68921354  0.86343405     0.02600
H441        H  0.63018428  0.75315413  0.90050821     0.15600
H442        H  0.65326640  0.61645777  0.88239412     0.15600
C443        C  0.71922488  0.69296530  0.83563975     0.37200
C444        C  0.56639701  0.67964634  0.95037275     0.37100
N445        N  0.75100277  0.69608384  0.81356340    -0.43100
N446        N  0.53659385  0.67855561  0.97458603    -0.43100
C447        C  0.62154301  0.96080994  0.92447499     0.00500
C448        C  0.60916611  0.91359799  0.93059133    -0.11400
C449        C  0.63447356  0.89584515  0.90678830     0.02700
C450        C  0.67331842  0.92576594  0.87558437     0.00400
C451        C  0.68926119  0.97428704  0.87436591    -0.11300
C452        C  0.66388006  0.99223178  0.89858195     0.02600
H453        H  0.57813060  0.88963400  0.95234540     0.15600
H454        H  0.71909277  0.99736312  0.85064771     0.15600
C455        C  0.68081186  0.04220082  0.89312357     0.37200
C456        C  0.61564417  0.84555216  0.91103366     0.37100
N457        N  0.69479864  0.08233412  0.88878789    -0.43100
N458        N  0.59825676  0.80498612  0.91549105    -0.43100
C459        C  0.39564980  0.34117186  0.11091081     0.00500
C460        C  0.40727450  0.31525933  0.14331276    -0.11400
C461        C  0.37178357  0.27560356  0.16814138     0.02700
C462        C  0.32393026  0.26185522  0.16085162     0.00400
C463        C  0.31253115  0.28886567  0.12965592    -0.11300
C464        C  0.34810188  0.32855662  0.10473342     0.02600
H465        H  0.44392348  0.32557570  0.14855446     0.15600
H466        H  0.27586404  0.27811851  0.12366806     0.15600
C467        C  0.33512502  0.35585459  0.07297136     0.37200
C468        C  0.38516348  0.24935424  0.20080133     0.37100
N469        N  0.32477631  0.37781456  0.04763710    -0.43100
N470        N  0.39574978  0.22874276  0.22782567    -0.43100
C471        C  0.35912016  0.27472842  0.35638787     0.00500
C472        C  0.40455234  0.28280468  0.34653798    -0.11400
C473        C  0.44456520  0.32750971  0.35389094     0.02700
C474        C  0.43930863  0.36570312  0.36884837     0.00400
C475        C  0.39378344  0.35867891  0.37465338    -0.11300
C476        C  0.35376844  0.31347848  0.36902232     0.02600
H477        H  0.40864853  0.25364399  0.33431298     0.15600
H478        H  0.38958909  0.38781891  0.38746253     0.15600
C479        C  0.30789690  0.30718515  0.37906982     0.37200
C480        C  0.49063733  0.33322818  0.34730377     0.37100
N481        N  0.27107619  0.30201558  0.38714688    -0.43100
N482        N  0.52762572  0.33792278  0.34212955    -0.43100
C483        C  0.45334523  0.07147945  0.38062754     0.00500
C484        C  0.46391522  0.11705485  0.36779481    -0.11400
C485        C  0.42803189  0.12570152  0.35430228     0.02700
C486        C  0.38005501  0.08870166  0.35681947     0.00400
C487        C  0.36976717  0.04375781  0.37269852    -0.11300
C488        C  0.40581629  0.03420107  0.38138411     0.02600
H489        H  0.50032956  0.14592745  0.36832597     0.15600
H490        H  0.33339161  0.01567564  0.37729848     0.15600
C491        C  0.39290335  0.98584653  0.39161062     0.37200
C492        C  0.44214769  0.17324665  0.33899652     0.37100
N493        N  0.38243211  0.94694779  0.39910593    -0.43100
N494        N  0.45513279  0.21185572  0.32703901    -0.43100
C495        C  0.33716306  0.07625381  0.13528349     0.00500
C496        C  0.32205862  0.04609971  0.09291554    -0.11400
C497        C  0.35327960  0.03560558  0.06821369     0.02700
C498        C  0.39970220  0.05484715  0.08699139     0.00400
C499        C  0.41494125  0.08590030  0.12814926    -0.11300
C500        C  0.38444170  0.09721781  0.15189739     0.02600
H501        H  0.28582476  0.03000709  0.08008910     0.15600
H502        H  0.45093213  0.10141241  0.14177445     0.12200
C503        C  0.40269587  0.12969031  0.19409964     0.37200
C504        C  0.33641951  0.00341438  0.02542369     0.37100
N505        N  0.41845325  0.15554068  0.22803794    -0.43100
N506        N  0.32308158  0.97766866  0.99108546    -0.43100
C507        C  0.76099077  0.07614155  0.41757196     0.00500
C508        C  0.73675112  0.03351066  0.44451064    -0.11400
C509        C  0.69148076  0.01809747  0.46364612     0.02700
C510        C  0.66970736  0.04475732  0.45375305     0.00400
C511        C  0.69506192  0.08850767  0.42958670    -0.11300
C512        C  0.74073409  0.10487213  0.41259557     0.02600
H513        H  0.75228527  0.01147797  0.44858406     0.15600
H514        H  0.67889348  0.10978544  0.42357752     0.15600
C515        C  0.76571135  0.15082254  0.38886142     0.37200
C516        C  0.66722978  0.97400863  0.49104154     0.37100
N517        N  0.78597103  0.18799669  0.37066316    -0.43100
N518        N  0.64786725  0.93887720  0.51339424    -0.43100
C519        C  0.72007640  0.08011337  0.19411418     0.00500
C520        C  0.70720491  0.05016448  0.15201472    -0.11400
C521        C  0.66823224  0.04111267  0.12308637     0.02700
C522        C  0.64175487  0.06248970  0.13634083     0.00400
C523        C  0.65259459  0.08982028  0.18048594    -0.11300
C524        C  0.69195429  0.09911823  0.20935610     0.02600
H525        H  0.72900541  0.03578666  0.14041463     0.15600
H526        H  0.63189380  0.10574989  0.19085792     0.15600
C527        C  0.70478866  0.13102497  0.25207402     0.37200
C528        C  0.65638142  0.00994674  0.07972641     0.37100
N529        N  0.71469881  0.15694268  0.28597409    -0.43100
N530        N  0.64713285  0.98466381  0.04533199    -0.43100
C531        C  0.94623468  0.27508883  0.37195514     0.00500
C532        C  0.90606879  0.27577068  0.35499086    -0.11400
C533        C  0.90424139  0.31731094  0.35668887     0.02700
C534        C  0.94359396  0.35930045  0.37425496     0.00400
C535        C  0.98386425  0.35884163  0.39100733    -0.11300
C536        C  0.98523017  0.31693347  0.39053219     0.02600
H537        H  0.87632142  0.24373539  0.33961318     0.15600
H538        H  0.01349882  0.39090404  0.40669936     0.15600
C539        C  0.02601958  0.31719813  0.41068021     0.37200
C540        C  0.86219348  0.31628305  0.33953642     0.37100
N541        N  0.05858943  0.31731329  0.42712215    -0.43100
N542        N  0.82847974  0.31538523  0.32564208    -0.43100
C543        C  0.83935579  0.42533820  0.60284126     0.00500
C544        C  0.80019520  0.38015837  0.59423631    -0.11400
C545        C  0.76148764  0.35882167  0.62779227     0.02700
C546        C  0.76158148  0.38101769  0.67484045     0.00400
C547        C  0.80146585  0.42682298  0.68326562    -0.11300
C548        C  0.83927526  0.44899851  0.64796588     0.02600
H549        H  0.79887478  0.36183963  0.55931613     0.15600
H550        H  0.80276306  0.44645844  0.71692302     0.15600
C551        C  0.87813753  0.49586037  0.65949497     0.37200
C552        C  0.72196436  0.31552336  0.60890258     0.37100
N553        N  0.90934228  0.53349097  0.66860671    -0.43100
N554        N  0.69140916  0.28254250  0.58912637    -0.43100
C555        C  0.94772478  0.36303333  0.11446686     0.00500
C556        C  0.95382393  0.32849769  0.08940047    -0.11400
C557        C  0.94884490  0.28911924  0.11515076     0.02700
C558        C  0.93735679  0.28365391  0.16688758     0.00400
C559        C  0.93271624  0.31870614  0.19252443    -0.11300
C560        C  0.93775005  0.35823963  0.16684792     0.02600
H561        H  0.96270388  0.33230488  0.04945482     0.15600
H562        H  0.92270268  0.31382414  0.23218604     0.15600
C563        C  0.92964005  0.39154625  0.19448321     0.37200
C564        C  0.95402844  0.25393248  0.08751733     0.37100
N565        N  0.92288166  0.41799138  0.21678998    -0.43100
N566        N  0.95818805  0.22576989  0.06527752    -0.43100
C567        C  0.84692883  0.43171679  0.87182625     0.00500
C568        C  0.83976873  0.39389414  0.83964444    -0.11400
C569        C  0.80319706  0.37390812  0.80265885     0.02700
C570        C  0.77111216  0.39023771  0.79755237     0.00400
C571        C  0.77960948  0.42933414  0.82790565    -0.11300
C572        C  0.81635661  0.44981646  0.86441727     0.02600
H573        H  0.86337840  0.38016067  0.84279042     0.15600
H574        H  0.75754152  0.44447314  0.82274340     0.15600
C575        C  0.82038641  0.48832775  0.89505495     0.37200
C576        C  0.80051156  0.33776411  0.76918251     0.37100
N577        N  0.82327981  0.51909577  0.91957043    -0.43100
N578        N  0.79966832  0.30986770  0.74148476    -0.43100
C579        C  0.94309371  0.69026026  0.36372564     0.00500
C580        C  0.98440238  0.69544491  0.38459163    -0.11400
C581        C  0.98906768  0.65578859  0.39141387     0.02700
C582        C  0.95186231  0.61018881  0.37722719     0.00400
C583        C  0.91070096  0.60495092  0.35627594    -0.11300
C584        C  0.90615239  0.64450860  0.34889109     0.02600
H585        H  0.01285529  0.73040189  0.39556930     0.15600
H586        H  0.88173651  0.56979857  0.34670753     0.15600
C587        C  0.86305564  0.63688968  0.32603843     0.37200
C588        C  0.03151758  0.66246601  0.41516815     0.37100
N589        N  0.82834406  0.63009624  0.30753250    -0.43100
N590        N  0.06558074  0.66799268  0.43419544    -0.43100
C591        C  0.93181470  0.67424352  0.15648055     0.00500
C592        C  0.93735006  0.64168149  0.18570634    -0.11400
C593        C  0.94513826  0.60766886  0.16280667     0.02700
C594        C  0.94594873  0.60489251  0.10935073     0.00400
C595        C  0.94175643  0.63855797  0.08043464    -0.11300
C596        C  0.93558855  0.67342369  0.10344316     0.02600
H597        H  0.93422225  0.64200637  0.22662265     0.15600
H598        H  0.94395727  0.63823394  0.03944538     0.15600
C599        C  0.93139342  0.70684738  0.07175958     0.37200
C600        C  0.95124806  0.57585047  0.19520893     0.37100
N601        N  0.92763335  0.73330249  0.04623880    -0.43100
N602        N  0.95654736  0.55070297  0.22131589    -0.43100
C603        C  0.75382812  0.69392564  0.40285703     0.00500
C604        C  0.73967717  0.64661284  0.39143171    -0.11400
C605        C  0.69749942  0.60931544  0.40990796     0.02700
C606        C  0.66860310  0.61917051  0.44042050     0.00400
C607        C  0.68404897  0.66626259  0.45482671    -0.11300
C608        C  0.72652059  0.70381725  0.43606490     0.02600
H609        H  0.76151152  0.63902246  0.36708005     0.15600
H610        H  0.66205250  0.67378292  0.47905419     0.15600
C611        C  0.74092312  0.75182265  0.45057196     0.37200
C612        C  0.68492186  0.56123431  0.39779348     0.37100
N613        N  0.75232120  0.79023758  0.46250727    -0.43100
N614        N  0.67504097  0.52272409  0.38833872    -0.43100
C615        C  0.71725797  0.66107793  0.18413588     0.00500
C616        C  0.70247936  0.67235510  0.13960926    -0.11400
C617        C  0.66416346  0.63714811  0.11247441     0.02700
C618        C  0.63997877  0.58994963  0.13031028     0.00400
C619        C  0.65253331  0.57940804  0.17679386    -0.11300
C620        C  0.69148806  0.61449005  0.20345759     0.02600
H621        H  0.72269943  0.70796087  0.12449586     0.15600
H622        H  0.63373440  0.54327700  0.19064709     0.15600
C623        C  0.70758593  0.60063381  0.24725353     0.37200
C624        C  0.65080456  0.65043504  0.06616897     0.37100
N625        N  0.72072944  0.58892804  0.28168664    -0.43100
N626        N  0.64056197  0.66191431  0.02932017    -0.43100
C627        C  0.24546762  0.93699874  0.55724266     0.00500
C628        C  0.27769891  0.98596632  0.55702510    -0.11400
C629        C  0.32201833  0.00361433  0.53479249     0.02700
C630        C  0.33355115  0.97128577  0.51306931     0.00400
C631        C  0.29683708  0.92492573  0.50196848    -0.11300
C632        C  0.25248224  0.90752420  0.52374281     0.02600
H633        H  0.27131269  0.00911253  0.58095940     0.15600
H634        H  0.30425190  0.90053411  0.48183566     0.15600
C635        C  0.21834301  0.85747138  0.51910214     0.37200
C636        C  0.35609344  0.05356443  0.54030938     0.37100
N637        N  0.19086439  0.81741189  0.51529602    -0.43100
N638        N  0.38330369  0.09366767  0.54440855    -0.43100
C639        C  0.07362195  0.74057348  0.61142600     0.00500
C640        C  0.10842391  0.72782097  0.60977820    -0.11400
C641        C  0.09896836  0.68465241  0.58828018     0.02700
C642        C  0.05416311  0.65403447  0.56704084     0.00400
C643        C  0.02057485  0.66892307  0.56655517    -0.11300
C644        C  0.02972972  0.71121552  0.58901767     0.02600
H645        H  0.14217737  0.75054830  0.62809721     0.15600
H646        H  0.98595576  0.64693479  0.54981244     0.15600
C647        C  0.99265814  0.72232910  0.59146559     0.37200
C648        C  0.13497296  0.67214774  0.59075746     0.37100
N649        N  0.96284898  0.73105505  0.59362416    -0.43100
N650        N  0.16392874  0.66223362  0.59310814    -0.43100
C651        C  0.31894641  0.91394042  0.79622257     0.00500
C652        C  0.32238609  0.87809717  0.82124253    -0.11400
C653        C  0.36137879  0.88935170  0.85188762     0.02700
C654        C  0.39766381  0.93715510  0.85687740     0.00400
C655        C  0.39678723  0.97159348  0.82596689    -0.11300
C656        C  0.35742541  0.96066797  0.79678945     0.02600
H657        H  0.29316667  0.84177440  0.81932847     0.15600
H658        H  0.42528290  0.00827601  0.82794999     0.15600
C659        C  0.35581683  0.99868067  0.77121923     0.37200
C660        C  0.36127611  0.85194436  0.88050299     0.37100
N661        N  0.35441542  0.02898127  0.75059477    -0.43100
N662        N  0.36119095  0.82188331  0.90333125    -0.43100
C663        C  0.10922576  0.75602440  0.86317817     0.00500
C664        C  0.13727749  0.73516102  0.86430391    -0.11400
C665        C  0.12147089  0.69169361  0.88814059     0.02700
C666        C  0.07693826  0.66882241  0.91200232     0.00400
C667        C  0.05100300  0.69219831  0.91446185    -0.11300
C668        C  0.06666063  0.73528642  0.89003366     0.02600
H669        H  0.16984257  0.75098142  0.84282317     0.15600
H670        H  0.01734702  0.67593617  0.93383734     0.15600
C671        C  0.03689786  0.75572311  0.88930658     0.37200
C672        C  0.14999691  0.67003304  0.88372700     0.37100
N673        N  0.01309593  0.77214251  0.88828493    -0.43100
N674        N  0.17292349  0.65276083  0.87993743    -0.43100
C675        C  0.24650872  0.30781037  0.57730435     0.00500
C676        C  0.27145995  0.28620388  0.56040233    -0.11400
C677        C  0.31526765  0.31317156  0.53635063     0.02700
C678        C  0.33344593  0.36204550  0.52762897     0.00400
C679        C  0.30529253  0.38152766  0.53933005    -0.11300
C680        C  0.26336512  0.35569506  0.56532002     0.02600
H681        H  0.25829025  0.24924062  0.56904529     0.15600
H682        H  0.31776932  0.41865234  0.53231066     0.15600
C683        C  0.24083225  0.38096526  0.58320744     0.37200
C684        C  0.34157662  0.29046518  0.52358483     0.37100
N685        N  0.22331772  0.40179260  0.59716780    -0.43100
N686        N  0.36309512  0.27259659  0.51372310    -0.43100
C687        C  0.29624768  0.37395812  0.80954774     0.00500
C688        C  0.29962046  0.34782852  0.84905907    -0.11400
C689        C  0.33584591  0.36948160  0.88456516     0.02700
C690        C  0.36957688  0.41866258  0.88087427     0.00400
C691        C  0.36657775  0.44465042  0.84056507    -0.11300
C692        C  0.33037880  0.42252751  0.80465652     0.02600
H693        H  0.27263273  0.31077205  0.85327834     0.15600
H694        H  0.39265376  0.48203246  0.83689434     0.15600
C695        C  0.32768287  0.45050714  0.76421994     0.37200
C696        C  0.33606354  0.34036464  0.92535267     0.37100
N697        N  0.32547779  0.47291695  0.73181992    -0.43100
N698        N  0.33603235  0.31656439  0.95756613    -0.43100
C699        C  0.06140860  0.33160652  0.59934250     0.00500
C700        C  0.02076358  0.31406296  0.57003626    -0.11400
C701        C  0.00864863  0.34498013  0.54791756     0.02700
C702        C  0.03885165  0.39516895  0.55369240     0.00400
C703        C  0.08038811  0.41235613  0.58196862    -0.11300
C704        C  0.09125115  0.38118555  0.60572363     0.02600
H705        H  0.99752735  0.27599635  0.56611527     0.15600
H706        H  0.10346925  0.45023567  0.58753669     0.15600
C707        C  0.13149120  0.40111281  0.63935161     0.37200
C708        C  0.96391615  0.32329469  0.52156259     0.37100
N709        N  0.16318526  0.41768210  0.66706812    -0.43100
N710        N  0.92774313  0.30593621  0.50120449    -0.43100
C711        C  0.06229272  0.42854656  0.88724130     0.00500
C712        C  0.04973808  0.38240858  0.90190897    -0.11400
C713        C  0.06204595  0.35510356  0.87228328     0.02700
C714        C  0.08684999  0.37390311  0.82706274     0.00400
C715        C  0.09879164  0.41962230  0.81174132    -0.11300
C716        C  0.08672483  0.44716045  0.84156709     0.02600
H717        H  0.03049150  0.36779296  0.93686089     0.15600
H718        H  0.11797811  0.43383433  0.77668317     0.15600
C719        C  0.09789567  0.49324986  0.82360685     0.37200
C720        C  0.04930105  0.30819033  0.88895061     0.37100
N721        N  0.10660956  0.53009539  0.80912814    -0.43100
N722        N  0.03906928  0.27055169  0.90218615    -0.43100
C723        C  0.24610182  0.62385768  0.18149400     0.00500
C724        C  0.20894238  0.63168587  0.19415975    -0.11400
C725        C  0.16688254  0.61260440  0.16503172     0.02700
C726        C  0.16121223  0.58670779  0.11958410     0.00400
C727        C  0.19904550  0.58067524  0.10553325    -0.11300
C728        C  0.24024989  0.59790059  0.13585688     0.02600
H729        H  0.21245531  0.65272497  0.22747032     0.15600
H730        H  0.19582551  0.56085810  0.07122534     0.15600
C731        C  0.27476114  0.58616337  0.11945389     0.37200
C732        C  0.13033944  0.62108172  0.18250032     0.37100
N733        N  0.30166980  0.57614201  0.10494988    -0.43100
N734        N  0.10094841  0.62767808  0.19668289    -0.43100
C735        C  0.15775857  0.57764601  0.36141592     0.00500
C736        C  0.19735122  0.62169802  0.37470412    -0.11400
C737        C  0.23945940  0.64315684  0.34546626     0.02700
C738        C  0.24449885  0.62016202  0.30190744     0.00400
C739        C  0.20524655  0.57505146  0.28988868    -0.11300
C740        C  0.16247340  0.55456628  0.31794710     0.02600
H741        H  0.19477232  0.64061911  0.40721822     0.15600
H742        H  0.20770224  0.55562273  0.25783163     0.15600
C743        C  0.12403832  0.50899773  0.30167940     0.37200
C744        C  0.27551522  0.69034461  0.36013638     0.37100
N745        N  0.09323446  0.47248485  0.28851025    -0.43100
N746        N  0.30315060  0.72829390  0.37334260    -0.43100
C747        C  0.38601863  0.61831216  0.18082704     0.00500
C748        C  0.37517155  0.57149043  0.19035168    -0.11400
C749        C  0.39345153  0.54855555  0.16037557     0.02700
C750        C  0.42224581  0.57113012  0.11745676     0.00400
C751        C  0.43200691  0.61736742  0.10685938    -0.11300
C752        C  0.41514558  0.64104453  0.13807647     0.02600
H753        H  0.35217918  0.55243426  0.22176712     0.15600
H754        H  0.45461194  0.63602027  0.07502026     0.15600
C755        C  0.43075632  0.68971259  0.12629109     0.37200
C756        C  0.38130824  0.50119761  0.17450624     0.37100
N757        N  0.44419287  0.72876396  0.11576413    -0.43100
N758        N  0.37167716  0.46332824  0.18616637    -0.43100
C759        C  0.38776900  0.61750152  0.30044972     0.00500
C760        C  0.43353792  0.62598283  0.28969006    -0.11400
C761        C  0.45532773  0.60580801  0.31877700     0.02700
C762        C  0.43252687  0.57713517  0.36186136     0.00400
C763        C  0.38700489  0.56905619  0.37261819    -0.11300
C764        C  0.36473100  0.58796276  0.34270430     0.02600
H765        H  0.45273136  0.64873487  0.25816218     0.15600
H766        H  0.36778636  0.54668828  0.40439401     0.15600
C767        C  0.31695999  0.57421148  0.35552204     0.37200
C768        C  0.50124591  0.61536258  0.30301948     0.37100
N769        N  0.27857881  0.56235137  0.36664570    -0.43100
N770        N  0.53793540  0.62295429  0.28986619    -0.43100
C771        C  0.42926654  0.84686122  0.11975414     0.00500
C772        C  0.45611020  0.84284462  0.15893758    -0.11400
C773        C  0.43774486  0.80222309  0.19044556     0.02700
C774        C  0.39034347  0.76426415  0.18515710     0.00400
C775        C  0.36359261  0.76837213  0.14577125    -0.11300
C776        C  0.38237680  0.80863230  0.11359010     0.02600
H777        H  0.49228531  0.87129850  0.16428590     0.15600
H778        H  0.32736169  0.74007366  0.14037655     0.15600
C779        C  0.35208102  0.81079477  0.07567413     0.37200
C780        C  0.46940007  0.79943278  0.22602327     0.37100
N781        N  0.32771219  0.81269437  0.04544485    -0.43100
N782        N  0.49495514  0.79732754  0.25445156    -0.43100
C783        C  0.38988325  0.76199375  0.30628624     0.00500
C784        C  0.38518915  0.80149333  0.29500662    -0.11400
C785        C  0.40539892  0.84276444  0.32599118     0.02700
C786        C  0.42882396  0.84497259  0.37180358     0.00400
C787        C  0.43276000  0.80548289  0.38395702    -0.11300
C788        C  0.41488661  0.76520058  0.35162487     0.02600
H789        H  0.36553844  0.80037507  0.26166276     0.15600
H790        H  0.45125172  0.80664819  0.41839802     0.15600
C791        C  0.42538570  0.72912528  0.36538991     0.37200
C792        C  0.40158980  0.88254453  0.30956000     0.37100
N793        N  0.43478399  0.70114366  0.37770401    -0.43100
N794        N  0.39872953  0.91433547  0.29548552    -0.43100
loop_ 
_geom_bond_atom_site_label_1 
_geom_bond_atom_site_label_2 
_geom_bond_distance 
_geom_bond_site_symmetry_2 
_ccdc_geom_bond_type 
C1            H2   1.108       .  S
C1            C7   1.572       .  S
C1            C6   1.572       .  S
C1            C5   1.565       .  S
C3            H4   1.107       .  S
C3            C9   1.574       .  S
C3            C8   1.573       .  S
C3           C10   1.575       .  S
C5            C8   1.396       .  D
C5          C774   1.541       .  S
C6            C9   1.397       .  D
C6          C723   1.545       .  S
C7           C10   1.394       .  D
C7          C747   1.540       .  S
C8          C783   1.540       .  S
C9          C738   1.550       .  S
C10         C759   1.549       .  S
N11          C16   1.347       .  A
N11          C15   1.342       .  A
N11          H43   1.033       .  S
N12          C19   1.353       .  A
N12          C20   1.351       .  A
N13          C18   1.352       .  A
N13          C17   1.350       .  A
N13          H44   1.037       .  S
N14          C21   1.347       .  A
N14          C22   1.344       .  A
C15          C23   1.385       .  A
C15          C31   1.398       .  A
C16          C32   1.407       .  A
C16          C24   1.387       .  A
C17          C25   1.389       .  A
C17          C34   1.412       .  A
C18          C33   1.412       .  A
C18          C26   1.384       .  A
C19          C31   1.407       .  A
C19          C27   1.383       .  A
C20          C34   1.415       .  A
C20          C28   1.389       .  A
C21          C29   1.386       .  A
C21          C32   1.405       .  A
C22          C30   1.388       .  A
C22          C33   1.406       .  A
C23          C24   1.377       .  A
C23          H35   1.082   1_455  S
C24          H36   1.082       .  S
C25          C26   1.377       .  A
C25          H37   1.081       .  S
C26          H38   1.082       .  S
C27          C28   1.370       .  A
C27          H39   1.082       .  S
C28          H40   1.083       .  S
C29          C30   1.368       .  A
C29          H41   1.082       .  S
C30          H42   1.082       .  S
C31         C699   1.479       .  S
C32         C714   1.472       .  S
C33         C687   1.475       .  S
C34         C675   1.483       .  S
N45          C50   1.351       .  A
N45          C49   1.353       .  A
N45          H77   1.042       .  S
N46          C53   1.346       .  A
N46          C54   1.344       .  A
N47          C52   1.350       .  A
N47          C51   1.351       .  A
N47          H78   1.043       .  S
N48          C55   1.340       .  A
N48          C56   1.346       .  A
C49          C57   1.389       .  A
C49          C65   1.412       .  A
C50          C66   1.407       .  A
C50          C58   1.387       .  A
C51          C59   1.383       .  A
C51          C68   1.404       .  A
C52          C67   1.416       .  A
C52          C60   1.390       .  A
C53          C65   1.401       .  A
C53          C61   1.386       .  A
C54          C68   1.403       .  A
C54          C62   1.386       .  A
C55          C63   1.385       .  A
C55          C66   1.395       .  A
C56          C64   1.386       .  A
C56          C67   1.403       .  A
C57          C58   1.365       .  A
C57          H69   1.082       .  S
C58          H70   1.082       .  S
C59          C60   1.368       .  A
C59          H71   1.082       .  S
C60          H72   1.077       .  S
C61          C62   1.372       .  A
C61          H73   1.083       .  S
C62          H74   1.083       .  S
C63          C64   1.376       .  A
C63          H75   1.082       .  S
C64          H76   1.082       .  S
C65         C663   1.479       .  S
C66         C639   1.474       .  S
C67         C627   1.480       .  S
C68         C651   1.479       .  S
N79          C84   1.349       .  A
N79          C83   1.347       .  A
N79         H111   1.036       .  S
N80          C87   1.348       .  A
N80          C88   1.352       .  A
N81          C86   1.343       .  A
N81          C85   1.347       .  A
N81         H112   1.031       .  S
N82          C89   1.354       .  A
N82          C90   1.353       .  A
C83          C91   1.384       .  A
C83          C99   1.406       .  A
C84         C100   1.407       .  A
C84          C92   1.388       .  A
C85          C93   1.385       .  A
C85         C102   1.411       .  A
C86         C101   1.401       .  A
C86          C94   1.388       .  A
C87          C99   1.409       .  A
C87          C95   1.387       .  A
C88         C102   1.414       .  A
C88          C96   1.387       .  A
C89          C97   1.387       .  A
C89         C100   1.413       .  A
C90          C98   1.385       .  A
C90         C101   1.411       .  A
C91          C92   1.379       .  A
C91         H103   1.082       .  S
C92         H104   1.082       .  S
C93          C94   1.378       .  A
C93         H105   1.082   1_655  S
C94         H106   1.082   1_655  S
C95          C96   1.365       .  A
C95         H107   1.082       .  S
C96         H108   1.081       .  S
C97          C98   1.370       .  A
C97         H109   1.083       .  S
C98         H110   1.083       .  S
C99         C615   1.475       .  S
C100        C603   1.483       .  S
C101        C579   1.484       .  S
C102        C591   1.489       .  S
O113        C129   1.278       .  A
O113       Zn119   2.034       .  S
C114        C726   1.529       .  S
C114        O130   1.282       .  A
C114        O127   1.277       .  A
O115        C128   1.270       .  A
O115       Cd122   2.017   1_455  S
O116        C134   1.279       .  A
O116       Cd125   2.077   1_655  S
O117        C131   1.276       .  A
O117       Cd121   2.047   1_554  S
O118        C129   1.272       .  A
O118       Cd121   2.029   1_455  S
Zn119       O130   2.117   1_556  S
Zn119       O132   2.041       .  S
Zn119       O124   1.974   1_556  S
O120        C131   1.277       .  A
O120       Cd125   2.073   1_655  S
Cd121       O123   2.138       .  S
Cd121       O124   2.000   1_656  S
Cd122       O126   2.142       .  S
Cd122       O135   2.054   1_556  S
Cd122       O124   1.999   1_656  S
O123        C133   1.280       .  A
O124       Cd125   2.013       .  S
Cd125       O127   2.123       .  S
O126        C133   1.281       .  A
C128        C711   1.465       .  S
C128        O132   1.280       .  A
C129        C666   1.481       .  S
C131        C594   1.483       .  S
C133        C567   1.532       .  S
C134        C555   1.478       .  S
C134        O135   1.277       .  A
O136        C152   1.286       .  A
O136       Zn142   2.147       .  S
C137        C642   1.488       .  S
C137        O153   1.288       .  A
C137        O150   1.263   1_455  A
O138        C151   1.267   1_655  A
O138       Cd145   1.993       .  S
O139        C157   1.274       .  A
O139       Cd148   2.132       .  S
O140        C154   1.279       .  A
O140       Cd144   2.082   1_655  S
O141        C152   1.276       .  A
O141       Cd144   2.122       .  S
Zn142       O153   2.102       .  S
Zn142       O155   2.092       .  S
Zn142       O147   1.973   1_455  S
O143        C154   1.273       .  A
O143       Cd148   2.033       .  S
Cd144       O146   2.068   1_455  S
Cd144       O147   2.010   1_455  S
Cd145       O149   2.036       .  S
Cd145       O158   2.127       .  S
Cd145       O147   1.986       .  S
O146        C156   1.275       .  A
O147       Cd148   1.979       .  S
Cd148       O150   1.960       .  S
O149        C156   1.269       .  A
C151        C702   1.488       .  S
C151        O155   1.290       .  A
C152        C735   1.533       .  S
C154        C582   1.460       .  S
C156        C534   1.460       .  S
C157        C543   1.522       .  S
C157        O158   1.276       .  A
N159        C164   1.349       .  A
N159        C163   1.347       .  A
N159        H191   1.038       .  S
N160        C167   1.346       .  A
N160        C168   1.349       .  A
N161        C166   1.344       .  A
N161        C165   1.348       .  A
N161        H192   1.033       .  S
N162        C169   1.354       .  A
N162        C170   1.352       .  A
C163        C171   1.384       .  A
C163        C179   1.404       .  A
C164        C180   1.407       .  A
C164        C172   1.389       .  A
C165        C173   1.383       .  A
C165        C182   1.410       .  A
C166        C181   1.402       .  A
C166        C174   1.389   1_655  A
C167        C179   1.405       .  A
C167        C175   1.386       .  A
C168        C182   1.411       .  A
C168        C176   1.388       .  A
C169        C177   1.385       .  A
C169        C180   1.412       .  A
C170        C178   1.385       .  A
C170        C181   1.411       .  A
C171        C172   1.377       .  A
C171        H183   1.082       .  S
C172        H184   1.082   1_545  S
C173        C174   1.379   1_655  A
C173        H185   1.082   1_655  S
C174        H186   1.082       .  S
C175        C176   1.368       .  A
C175        H187   1.082       .  S
C176        H188   1.082       .  S
C177        C178   1.372       .  A
C177        H189   1.082       .  S
C178        H190   1.081       .  S
C179        C519   1.470       .  S
C180        C507   1.484       .  S
C181        C531   1.482       .  S
C182        C558   1.481       .  S
N193        C198   1.358       .  A
N193        C197   1.355       .  A
N193        H225   1.043       .  S
N194        C201   1.344       .  A
N194        C202   1.350       .  A
N195        C200   1.348       .  A
N195        C199   1.349       .  A
N195        H226   1.044       .  S
N196        C203   1.345       .  A
N196        C204   1.350       .  A
C197        C205   1.382       .  A
C197        C213   1.408       .  A
C198        C214   1.420       .  A
C198        C206   1.390       .  A
C199        C207   1.387       .  A
C199        C216   1.408       .  A
C200        C215   1.406       .  A
C200        C208   1.386       .  A
C201        C213   1.402       .  A
C201        C209   1.385       .  A
C202        C216   1.409       .  A
C202        C210   1.388       .  A
C203        C211   1.387       .  A
C203        C214   1.410       .  A
C204        C212   1.385       .  A
C204        C215   1.411       .  A
C205        C206   1.367       .  A
C205        H217   1.083   1_545  S
C206        H218   1.077       .  S
C207        C208   1.374       .  A
C207        H219   1.082       .  S
C208        H220   1.082       .  S
C209        C210   1.373       .  A
C209        H221   1.082       .  S
C210        H222   1.083       .  S
C211        C212   1.375       .  A
C211        H223   1.082       .  S
C212        H224   1.080       .  S
C213        C495   1.481       .  S
C214        C486   1.494       .  S
C215        C471   1.490       .  S
C216        C462   1.481       .  S
N227        C232   1.348       .  A
N227        C231   1.347       .  A
N227        H259   1.043       .  S
N228        C235   1.334       .  A
N228        C236   1.337       .  A
N229        C234   1.343       .  A
N229        C233   1.350       .  A
N229        H260   1.040       .  S
N230        C237   1.348       .  A
N230        C238   1.346       .  A
C231        C239   1.389       .  A
C231        C247   1.415       .  A
C232        C248   1.398       .  A
C232        C240   1.383       .  A
C233        C241   1.389       .  A
C233        C250   1.421       .  A
C234        C249   1.399       .  A
C234        C242   1.385       .  A
C235        C247   1.399       .  A
C235        C243   1.388       .  A
C236        C250   1.404       .  A
C236        C244   1.387       .  A
C237        C245   1.387       .  A
C237        C248   1.406       .  A
C238        C246   1.386       .  A
C238        C249   1.403       .  A
C239        C240   1.379       .  A
C239        H251   1.082       .  S
C240        H252   1.081       .  S
C241        C242   1.383       .  A
C241        H253   1.082       .  S
C242        H254   1.082       .  S
C243        C244   1.381       .  A
C243        H255   1.082       .  S
C244        H256   1.082       .  S
C245        C246   1.378       .  A
C245        H257   1.082       .  S
C246        H258   1.082       .  S
C247        C414   1.466       .  S
C248        C435   1.480       .  S
C249        C450   1.477       .  S
C250        C423   1.483       .  S
O261        C277   1.278       .  A
O261       Zn267   2.013       .  S
C262        C786   1.517       .  S
C262        O278   1.280       .  A
C262        O275   1.278       .  A
O263        C276   1.276       .  A
O263       Cd270   2.043   1_565  S
O264        C282   1.281       .  A
O264       Cd273   2.072   1_545  S
O265        C279   1.270       .  A
O265       Cd269   2.043       .  S
O266        C277   1.274   1_545  A
O266       Cd269   2.056       .  S
Zn267       O278   2.102       .  S
Zn267       O280   2.018       .  S
Zn267       O272   1.948       .  S
O268        C279   1.272       .  A
O268       Cd273   2.061   1_545  S
Cd269       O271   2.130       .  S
Cd269       O272   2.014   1_545  S
Cd270       O274   2.133       .  S
Cd270       O283   2.065       .  S
Cd270       O272   1.987   1_545  S
O271        C281   1.279       .  A
O272       Cd273   2.009       .  S
Cd273       O275   2.126       .  S
O274        C281   1.279       .  A
C276        C426   1.460       .  S
C276        O280   1.277       .  A
C277        C630   1.481       .  S
C279        C483   1.465       .  S
C281        C402   1.522       .  S
C282        C510   1.465       .  S
C282        O283   1.277       .  A
O284        C300   1.279       .  A
O284       Zn290   2.099       .  S
C285        C678   1.481       .  S
C285        O301   1.272       .  A
C285        O298   1.276       .  A
O286        C299   1.274       .  A
O286       Cd293   2.043       .  S
O287        C305   1.281       .  A
O287       Cd296   2.141       .  S
O288        C302   1.276       .  A
O288       Cd292   2.082       .  S
O289        C300   1.281       .  A
O289       Cd292   2.160       .  S
Zn290       O301   1.960       .  S
Zn290       O303   1.987       .  S
Zn290       O295   1.939       .  S
O291        C302   1.270       .  A
O291       Cd296   2.040       .  S
Cd292       O294   2.080       .  S
Cd292       O295   2.011       .  S
Cd293       O297   2.066       .  S
Cd293       O306   2.146       .  S
Cd293       O295   1.992       .  S
O294        C304   1.284       .  A
O295       Cd296   2.023       .  S
Cd296       O298   2.074       .  S
O297        C304   1.279       .  A
C299        C411   1.449       .  S
C299        O303   1.272       .  A
C300        C762   1.543       .  S
C302        C474   1.466       .  S
C304        C606   1.466       .  S
C305        C387   1.536       .  S
C305        O306   1.280       .  A
O307        C323   1.285       .  A
O307       Zn313   2.136   1_554  S
C308        C654   1.476       .  S
C308        O324   1.279       .  A
C308        O321   1.269       .  A
O309        C322   1.266   1_545  A
O309       Cd316   2.009       .  S
O310        C328   1.275       .  A
O310       Cd319   2.112       .  S
O311        C325   1.280       .  A
O311       Cd315   2.074       .  S
O312        C323   1.278       .  A
O312       Cd315   2.127   1_565  S
Zn313       O324   2.052       .  S
Zn313       O326   2.027       .  S
Zn313       O318   1.970   1_566  S
O314        C325   1.270       .  A
O314       Cd319   2.025   1_554  S
Cd315       O317   2.067       .  S
Cd315       O318   2.004       .  S
Cd316       O320   2.028   1_556  S
Cd316       O329   2.114       .  S
Cd316       O318   1.999   1_556  S
O317        C327   1.275       .  A
O318       Cd319   1.985   1_554  S
Cd319       O321   1.998   1_545  S
O320        C327   1.272       .  A
C322        C447   1.474       .  S
C322        O326   1.281       .  A
C323        C771   1.527       .  S
C325        C498   1.458       .  S
C327        C522   1.459       .  S
C328        C375   1.511       .  S
C328        O329   1.276       .  A
O330        C346   1.283       .  A
O330       Zn336   2.065       .  S
C331        C750   1.529       .  S
C331        O347   1.285       .  A
C331        O344   1.274       .  A
O332        C345   1.267       .  A
O332       Cd339   2.003       .  S
O333        C351   1.275       .  A
O333       Cd342   2.063       .  S
O334        C348   1.276       .  A
O334       Cd338   2.059   1_554  S
O335        C346   1.267       .  A
O335       Cd338   2.004       .  S
Zn336       O347   2.143   1_556  S
Zn336       O349   2.037       .  S
Zn336       O341   1.977   1_556  S
O337        C348   1.275       .  A
O337       Cd342   2.052       .  S
Cd338       O340   2.137       .  S
Cd338       O341   1.993   1_556  S
Cd339       O343   2.127       .  S
Cd339       O352   2.048   1_556  S
Cd339       O341   1.999   1_556  S
O340        C350   1.279       .  A
O341       Cd342   2.005       .  S
Cd342       O344   2.102       .  S
O343        C350   1.279       .  A
C345        C438   1.472       .  S
C345        O349   1.280       .  A
C346        C690   1.474       .  S
C348        C459   1.458       .  S
C350        C366   1.529       .  S
C351        C618   1.464       .  S
C351        O352   1.275       .  A
C353        H354   1.098       .  S
C353        C359   1.574       .  S
C353        C358   1.572       .  S
C353        C357   1.570       .  S
C355        H356   1.111       .  S
C355        C361   1.566       .  S
C355        C360   1.552       .  S
C355        C362   1.560       .  S
C357        C360   1.380       .  D
C357        C399   1.527       .  S
C358        C361   1.400       .  D
C358        C546   1.553       .  S
C359        C362   1.399       .  D
C359        C390   1.544       .  S
C360        C378   1.517       .  S
C361        C570   1.532       .  S
C362        C363   1.539       .  S
C363        C364   1.412       .  A
C363        C368   1.422       .  A
C364        C365   1.415       .  A
C364        H369   1.076       .  S
C365        C366   1.418       .  A
C365        C372   1.444       .  S
C366        C367   1.415       .  A
C367        C368   1.423       .  A
C367        H370   1.084       .  S
C368        C371   1.440       .  S
C371        N373   1.157       .  T
C372        N374   1.157       .  T
C375        C376   1.408       .  A
C375        C380   1.417       .  A
C376        C377   1.413       .  A
C376        H381   1.085       .  S
C377        C378   1.417       .  A
C377        C384   1.439       .  S
C378        C379   1.410       .  A
C379        C380   1.415       .  A
C379        H382   1.085       .  S
C380        C383   1.443       .  S
C383        N385   1.157       .  T
C384        N386   1.156       .  T
C387        C388   1.409       .  A
C387        C392   1.424       .  A
C388        C389   1.418       .  A
C388        H393   1.085       .  S
C389        C390   1.427       .  A
C389        C396   1.441       .  S
C390        C391   1.414       .  A
C391        C392   1.424       .  A
C391        H394   1.084       .  S
C392        C395   1.442       .  S
C395        N397   1.157       .  T
C396        N398   1.157       .  T
C399        C400   1.406       .  A
C399        C404   1.416       .  A
C400        C401   1.417       .  A
C400        H405   1.083       .  S
C401        C402   1.419       .  A
C401        C408   1.443       .  S
C402        C403   1.412       .  A
C403        C404   1.420       .  A
C403        H406   1.084       .  S
C404        C407   1.440       .  S
C407        N409   1.156       .  T
C408        N410   1.157       .  T
C411        C412   1.395       .  A
C411        C416   1.408       .  A
C412        C413   1.387       .  A
C412        H417   1.086       .  S
C413        C414   1.411       .  A
C413        C420   1.445       .  S
C414        C415   1.400       .  A
C415        C416   1.394       .  A
C415        H418   1.085       .  S
C416        C419   1.444       .  S
C419        N421   1.157       .  T
C420        N422   1.157       .  T
C423        C424   1.405       .  A
C423        C428   1.409       .  A
C424        C425   1.392       .  A
C424        H429   1.082       .  S
C425        C426   1.406       .  A
C425        C432   1.446       .  S
C426        C427   1.404       .  A
C427        C428   1.398       .  A
C427        H430   1.085       .  S
C428        C431   1.444       .  S
C431        N433   1.157       .  T
C432        N434   1.157       .  T
C435        C436   1.404       .  A
C435        C440   1.403       .  A
C436        C437   1.390       .  A
C436        H441   1.076       .  S
C437        C438   1.408       .  A
C437        C444   1.445       .  S
C438        C439   1.411       .  A
C439        C440   1.397       .  A
C439        H442   1.084       .  S
C440        C443   1.443       .  S
C443        N445   1.157       .  T
C444        N446   1.157       .  T
C447        C448   1.395       .  A
C447        C452   1.420       .  A
C448        C449   1.386       .  A
C448        H453   1.085       .  S
C449        C450   1.417       .  A
C449        C456   1.440       .  S
C450        C451   1.398       .  A
C451        C452   1.398       .  A
C451        H454   1.085       .  S
C452        C455   1.444   1_565  S
C455        N457   1.157       .  T
C456        N458   1.155       .  T
C459        C460   1.394       .  A
C459        C464   1.412       .  A
C460        C461   1.395       .  A
C460        H465   1.085       .  S
C461        C462   1.416       .  A
C461        C468   1.441       .  S
C462        C463   1.398       .  A
C463        C464   1.398       .  A
C463        H466   1.085       .  S
C464        C467   1.445       .  S
C467        N469   1.157       .  T
C468        N470   1.155       .  T
C471        C472   1.407       .  A
C471        C476   1.408       .  A
C472        C473   1.396       .  A
C472        H477   1.079       .  S
C473        C474   1.404       .  A
C473        C480   1.444       .  S
C474        C475   1.407       .  A
C475        C476   1.400       .  A
C475        H478   1.085       .  S
C476        C479   1.443       .  S
C479        N481   1.157       .  T
C480        N482   1.157       .  T
C483        C484   1.394       .  A
C483        C488   1.413       .  A
C484        C485   1.397       .  A
C484        H489   1.085       .  S
C485        C486   1.421       .  A
C485        C492   1.441       .  S
C486        C487   1.400       .  A
C487        C488   1.395       .  A
C487        H490   1.084       .  S
C488        C491   1.444   1_545  S
C491        N493   1.157       .  T
C492        N494   1.156       .  T
C495        C496   1.400       .  A
C495        C500   1.414       .  A
C496        C497   1.401       .  A
C496        H501   1.084       .  S
C497        C498   1.414       .  A
C497        C504   1.444       .  S
C498        C499   1.391       .  A
C499        C500   1.386       .  A
C499        H502   1.086       .  S
C500        C503   1.438       .  S
C503        N505   1.154       .  T
C504        N506   1.157   1_544  T
C507        C508   1.403       .  A
C507        C512   1.413       .  A
C508        C509   1.404       .  A
C508        H513   1.084       .  S
C509        C510   1.412       .  A
C509        C516   1.444   1_545  S
C510        C511   1.396       .  A
C511        C512   1.391       .  A
C511        H514   1.085       .  S
C512        C515   1.444       .  S
C515        N517   1.157       .  T
C516        N518   1.157       .  T
C519        C520   1.393       .  A
C519        C524   1.413       .  A
C520        C521   1.390       .  A
C520        H525   1.085       .  S
C521        C522   1.414       .  A
C521        C528   1.444       .  S
C522        C523   1.396       .  A
C523        C524   1.398       .  A
C523        H526   1.085       .  S
C524        C527   1.442       .  S
C527        N529   1.156       .  T
C528        N530   1.156   1_545  T
C531        C532   1.410       .  A
C531        C536   1.403       .  A
C532        C533   1.394       .  A
C532        H537   1.083       .  S
C533        C534   1.401       .  A
C533        C540   1.443       .  S
C534        C535   1.408       .  A
C535        C536   1.398       .  A
C535        H538   1.085   1_655  S
C536        C539   1.443   1_655  S
C539        N541   1.157       .  T
C540        N542   1.157       .  T
C543        C544   1.399       .  A
C543        C548   1.418       .  A
C544        C545   1.413       .  A
C544        H549   1.086       .  S
C545        C546   1.435       .  A
C545        C552   1.437       .  S
C546        C547   1.419       .  A
C547        C548   1.426       .  A
C547        H550   1.082       .  S
C548        C551   1.442       .  S
C551        N553   1.157       .  T
C552        N554   1.157       .  T
C555        C556   1.409       .  A
C555        C560   1.412       .  A
C556        C557   1.397       .  A
C556        H561   1.085       .  S
C557        C558   1.405       .  A
C557        C564   1.444       .  S
C558        C559   1.405       .  A
C559        C560   1.399       .  A
C559        H562   1.085       .  S
C560        C563   1.444       .  S
C563        N565   1.157       .  T
C564        N566   1.157       .  T
C567        C568   1.416       .  A
C567        C572   1.422       .  A
C568        C569   1.423       .  A
C568        H573   1.084       .  S
C569        C570   1.416       .  A
C569        C576   1.440       .  S
C570        C571   1.409       .  A
C571        C572   1.418       .  A
C571        H574   1.079       .  S
C572        C575   1.443       .  S
C575        N577   1.157       .  T
C576        N578   1.157       .  T
C579        C580   1.397       .  A
C579        C584   1.420       .  A
C580        C581   1.398       .  A
C580        H585   1.085   1_655  S
C581        C582   1.415       .  A
C581        C588   1.445   1_655  S
C582        C583   1.393       .  A
C583        C584   1.395       .  A
C583        H586   1.085       .  S
C584        C587   1.444       .  S
C587        N589   1.157       .  T
C588        N590   1.157       .  T
C591        C592   1.406       .  A
C591        C596   1.407       .  A
C592        C593   1.400       .  A
C592        H597   1.085       .  S
C593        C594   1.414       .  A
C593        C600   1.445       .  S
C594        C595   1.410       .  A
C595        C596   1.395       .  A
C595        H598   1.085       .  S
C596        C599   1.444       .  S
C599        N601   1.157       .  T
C600        N602   1.158       .  T
C603        C604   1.404       .  A
C603        C608   1.407       .  A
C604        C605   1.392       .  A
C604        H609   1.084       .  S
C605        C606   1.404       .  A
C605        C612   1.444       .  S
C606        C607   1.407       .  A
C607        C608   1.403       .  A
C607        H610   1.085       .  S
C608        C611   1.442       .  S
C611        N613   1.157       .  T
C612        N614   1.157       .  T
C615        C616   1.395       .  A
C615        C620   1.414       .  A
C616        C617   1.394       .  A
C616        H621   1.085       .  S
C617        C618   1.415       .  A
C617        C624   1.443       .  S
C618        C619   1.396       .  A
C619        C620   1.397       .  A
C619        H622   1.085       .  S
C620        C623   1.442       .  S
C623        N625   1.156       .  T
C624        N626   1.156       .  T
C627        C628   1.402       .  A
C627        C632   1.410       .  A
C628        C629   1.398   1_565  A
C628        H633   1.085   1_565  S
C629        C630   1.415   1_545  A
C629        C636   1.444       .  S
C630        C631   1.406       .  A
C631        C632   1.395       .  A
C631        H634   1.085       .  S
C632        C635   1.445       .  S
C635        N637   1.157       .  T
C636        N638   1.157       .  T
C639        C640   1.409       .  A
C639        C644   1.394       .  A
C640        C641   1.401       .  A
C640        H645   1.085       .  S
C641        C642   1.409       .  A
C641        C648   1.443       .  S
C642        C643   1.421       .  A
C643        C644   1.389       .  A
C643        H646   1.084   1_455  S
C644        C647   1.445   1_455  S
C647        N649   1.157       .  T
C648        N650   1.157       .  T
C651        C652   1.406       .  A
C651        C656   1.404       .  A
C652        C653   1.399       .  A
C652        H657   1.085       .  S
C653        C654   1.410       .  A
C653        C660   1.443       .  S
C654        C655   1.409       .  A
C655        C656   1.389       .  A
C655        H658   1.085   1_565  S
C656        C659   1.446       .  S
C659        N661   1.157   1_565  T
C660        N662   1.157       .  T
C663        C664   1.404       .  A
C663        C668   1.402       .  A
C664        C665   1.397       .  A
C664        H669   1.085       .  S
C665        C666   1.413       .  A
C665        C672   1.444       .  S
C666        C667   1.412       .  A
C667        C668   1.394       .  A
C667        H670   1.085       .  S
C668        C671   1.444       .  S
C671        N673   1.157       .  T
C672        N674   1.157       .  T
C675        C676   1.404       .  A
C675        C680   1.410       .  A
C676        C677   1.405       .  A
C676        H681   1.084       .  S
C677        C678   1.416       .  A
C677        C684   1.441       .  S
C678        C679   1.403       .  A
C679        C680   1.382       .  A
C679        H682   1.085       .  S
C680        C683   1.444       .  S
C683        N685   1.156       .  T
C684        N686   1.157       .  T
C687        C688   1.394       .  A
C687        C692   1.411       .  A
C688        C689   1.392       .  A
C688        H693   1.085       .  S
C689        C690   1.420       .  A
C689        C696   1.446       .  S
C690        C691   1.402       .  A
C691        C692   1.400       .  A
C691        H694   1.085       .  S
C692        C695   1.444       .  S
C695        N697   1.157       .  T
C696        N698   1.157       .  T
C699        C700   1.391       .  A
C699        C704   1.415       .  A
C700        C701   1.396       .  A
C700        H705   1.085   1_455  S
C701        C702   1.431       .  A
C701        C708   1.446   1_455  S
C702        C703   1.400       .  A
C703        C704   1.396       .  A
C703        H706   1.085       .  S
C704        C707   1.444       .  S
C707        N709   1.157       .  T
C708        N710   1.158       .  T
C711        C712   1.406       .  A
C711        C716   1.407       .  A
C712        C713   1.393       .  A
C712        H717   1.085       .  S
C713        C714   1.402       .  A
C713        C720   1.444       .  S
C714        C715   1.404       .  A
C715        C716   1.397       .  A
C715        H718   1.085       .  S
C716        C719   1.444       .  S
C719        N721   1.157       .  T
C720        N722   1.157       .  T
C723        C724   1.414       .  A
C723        C728   1.426       .  A
C724        C725   1.420       .  A
C724        H729   1.083       .  S
C725        C726   1.422       .  A
C725        C732   1.443       .  S
C726        C727   1.409       .  A
C727        C728   1.421       .  A
C727        H730   1.084       .  S
C728        C731   1.441       .  S
C731        N733   1.157       .  T
C732        N734   1.157       .  T
C735        C736   1.408       .  A
C735        C740   1.422       .  A
C736        C737   1.424       .  A
C736        H741   1.084       .  S
C737        C738   1.427       .  A
C737        C744   1.440       .  S
C738        C739   1.416       .  A
C739        C740   1.424       .  A
C739        H742   1.084       .  S
C740        C743   1.443       .  S
C743        N745   1.157       .  T
C744        N746   1.157       .  T
C747        C748   1.411       .  A
C747        C752   1.425       .  A
C748        C749   1.418       .  A
C748        H753   1.084       .  S
C749        C750   1.423       .  A
C749        C756   1.443       .  S
C750        C751   1.410       .  A
C751        C752   1.423       .  A
C751        H754   1.084       .  S
C752        C755   1.441       .  S
C755        N757   1.157       .  T
C756        N758   1.157       .  T
C759        C760   1.417       .  A
C759        C764   1.421       .  A
C760        C761   1.427       .  A
C760        H765   1.084       .  S
C761        C762   1.426       .  A
C761        C768   1.443       .  S
C762        C763   1.414       .  A
C763        C764   1.421       .  A
C763        H766   1.084       .  S
C764        C767   1.441       .  S
C767        N769   1.157       .  T
C768        N770   1.158       .  T
C771        C772   1.412       .  A
C771        C776   1.417       .  A
C772        C773   1.422       .  A
C772        H777   1.084       .  S
C773        C774   1.423       .  A
C773        C780   1.442       .  S
C774        C775   1.415       .  A
C775        C776   1.423       .  A
C775        H778   1.084       .  S
C776        C779   1.442       .  S
C779        N781   1.157       .  T
C780        N782   1.157       .  T
C783        C784   1.414       .  A
C783        C788   1.426       .  A
C784        C785   1.418       .  A
C784        H789   1.083       .  S
C785        C786   1.417       .  A
C785        C792   1.442       .  S
C786        C787   1.405       .  A
C787        C788   1.419       .  A
C787        H790   1.085       .  S
C788        C791   1.441       .  S
C791        N793   1.157       .  T
C792        N794   1.157       .  T
