geometry optimzed in LAMMPS
_audit_creation_date              2020-11-30 
_audit_creation_method            'lammps2cif' 
_symmetry_space_group_name_H-M    'P1' 
_symmetry_Int_Tables_number       1 
_symmetry_cell_setting            triclinic 
loop_ 
_symmetry_equiv_pos_as_xyz 
  x,y,z 
_cell_length_a                    31.0412573461765 
_cell_length_b                    30.793617424068927 
_cell_length_c                    29.59835991485281 
_cell_angle_alpha                 91.82943742419657 
_cell_angle_beta                  91.34474835194514 
_cell_angle_gamma                 120.45405944012893 
loop_ 
_atom_site_label 
_atom_site_type_symbol 
_atom_site_fract_x 
_atom_site_fract_y 
_atom_site_fract_z 
_atom_site_charge 
Zr1        Zr  0.32500045  0.18334067  0.42388654     2.17510
O2          O  0.35221435  0.22410511  0.49960738    -0.50640
O3          O  0.29291395  0.10345890  0.46278291    -0.73840
O4          O  0.26470607  0.19812140  0.45944669    -0.80630
O5          O  0.45268119  0.21091551  0.40867661    -0.82370
O6          O  0.24231237  0.23549228  0.40722353    -0.78000
O7          O  0.40390083  0.21576116  0.46223056    -0.89630
O8          O  0.24562370  0.03807226  0.41257967    -0.75590
O9          O  0.24846449  0.13364100  0.38154857    -0.85090
O10         O  0.34060232  0.12591365  0.38262361    -0.84770
O11         O  0.31928261  0.24310789  0.37711949    -0.71530
O12         O  0.39277617  0.23393887  0.37640307    -0.83670
Zr13       Zr  0.31892874  0.17797772  0.24410294     2.26420
Zr14       Zr  0.24048410  0.19193610  0.33431530     2.06270
Zr15       Zr  0.40763461  0.17608464  0.33464529     2.10050
Zr16       Zr  0.26421274  0.07577064  0.33991350     1.78760
O17         O  0.49365400  0.23066648  0.31427895    -0.92470
O18         O  0.17345446  0.02247547  0.33972637    -0.40280
O19         O  0.33130728  0.12359352  0.29200771    -0.76910
O20         O  0.25262397  0.13046829  0.29368699    -0.95600
O21         O  0.30663041  0.23886837  0.28383567    -0.88900
O22         O  0.39706617  0.22998631  0.28388365    -0.91740
C23         C  0.26424012  0.05600244  0.45245529     1.02010
C24         C  0.44525165  0.22210647  0.44912051     1.14940
C25         C  0.25344869  0.23080851  0.44851334     1.05720
O26         O  0.15470412  0.14105878  0.35680644    -0.93900
O27         O  0.19128669  0.15527516  0.26103857    -0.89640
O28         O  0.24434086  0.16354643  0.20562542    -0.82790
C29         C  0.20084775  0.14887362  0.21966185     1.12360
O30         O  0.44122572  0.37807619  0.34135172    -0.95870
Zr31       Zr  0.38350656  0.28818609  0.32579204     1.88940
O32         O  0.35434426  0.25106751  0.19770707    -0.72520
O33         O  0.21835916  0.25346201  0.31073719    -0.51780
O34         O  0.35364194  0.34321192  0.35329135    -0.96460
O35         O  0.47379717  0.32526297  0.33702142    -0.53680
O36         O  0.38667968  0.31589893  0.24981369    -0.73040
C37         C  0.37683627  0.29823775  0.20890792     0.99300
O38         O  0.27838223  0.11646077  0.18061623    -0.61860
O39         O  0.43262274  0.11542346  0.35398508    -0.56660
O40         O  0.37682834  0.16004115  0.20751142    -0.93350
O41         O  0.40528456  0.13137873  0.26372030    -0.91770
O42         O  0.29995388  0.02171520  0.33135872    -0.92130
O43         O  0.23126404  0.01969477  0.27294071    -0.90910
C44         C  0.39547119  0.13416695  0.22173758     1.18150
H45         H  0.34926998  0.10633835  0.40166629     0.34090
H46         H  0.22360439  0.10532752  0.27623060     0.44940
H47         H  0.42434053  0.24622553  0.26379037     0.38470
H48         H  0.32381147  0.27058119  0.39698560     0.34950
H49         H  0.16718640  0.98871076  0.34718072     0.26740
H50         H  0.18420186  0.24071312  0.32143344     0.32670
H51         H  0.33292411  0.34382912  0.32766883     0.38580
H52         H  0.27202210  0.98701939  0.33523817     0.33040
H53         H  0.46898397  0.13280561  0.34929319     0.31920
H54         H  0.51424761  0.22486283  0.33655574     0.33600
H55         H  0.48633319  0.32946924  0.30609784     0.32570
H56         H  0.21441413  0.98535097  0.28440610     0.36570
H57         H  0.30155550  0.12837902  0.15549489     0.29300
H58         H  0.32496796  0.20364619  0.51990500     0.33530
H59         H  0.43603609  0.39530998  0.31592397     0.36380
H60         H  0.42994226  0.11313742  0.38717304     0.29000
H61         H  0.27757931  0.08566833  0.19046705     0.41870
H62         H  0.14403690  0.10647436  0.34494725     0.31920
H63         H  0.16350544  0.03458706  0.36667751     0.39540
H64         H  0.47883226  0.29838835  0.34870901     0.31390
H65         H  0.23978929  0.28408672  0.33033430     0.31450
H66         H  0.35295326  0.25652712  0.49802690     0.31720
C67         C  0.19954528  0.37468373  0.17157342     0.02980
C68         C  0.20017428  0.42132950  0.17156943     0.02980
C69         C  0.15317947  0.42121168  0.17089016     0.02980
C70         C  0.10640256  0.37351162  0.16932215     0.02980
C71         C  0.10738777  0.32785552  0.16998921     0.02980
C72         C  0.15346108  0.32893624  0.17096748     0.02980
C73         C  0.16004208  0.11596420  0.18610942     0.01260
C74         C  0.14217430  0.13672515  0.15635545     0.01260
C75         C  0.37549446  0.35379899  0.14850843     0.01260
C76         C  0.40046312  0.33539764  0.17353585     0.01260
C77         C  0.40003031  0.10102358  0.18766093     0.01260
C78         C  0.44019512  0.11895358  0.16049912     0.01260
C79         C  0.48563482  0.24037918  0.48415278     0.01260
C80         C  0.50197775  0.28364202  0.51156522     0.01260
C81         C  0.21319250  0.48930223  0.50646142     0.01260
C82         C  0.25819870  0.01889111  0.48673642     0.01260
C83         C  0.03369266  0.00833653  0.50062252     0.02980
C84         C  0.48577823  0.46325135  0.49807251     0.02980
C85         C  0.44058333  0.46438360  0.49792365     0.02980
C86         C  0.44295699  0.01161597  0.50101820     0.02980
C87         C  0.49050580  0.05699490  0.50361435     0.02980
C88         C  0.03572373  0.05531061  0.50434442     0.02980
C89         C  0.25657857  0.26604222  0.48586390     0.01260
C90         C  0.22407031  0.24868695  0.52022617     0.01260
Zr91       Zr  0.48215485  0.00538156  0.91179266     2.17510
O92         O  0.46052805  0.99993331  0.83093841    -0.50640
O93         O  0.02196017  0.96651899  0.86808760    -0.73840
O94         O  0.02968072  0.08561490  0.87742719    -0.80630
O95         O  0.35892394  0.39402695  0.92329159    -0.82370
O96         O  0.09053833  0.13684899  0.92979285    -0.78000
O97         O  0.39631218  0.46624438  0.88649713    -0.89630
O98         O  0.05348314  0.43350241  0.91700760    -0.75590
O99         O  0.05794017  0.02791314  0.95295799    -0.85090
O100        O  0.46402250  0.43202265  0.95170191    -0.84770
O101        O  0.99633254  0.07554383  0.96131447    -0.71530
O102        O  0.41390442  0.98673109  0.95960173    -0.83670
Zr103      Zr  0.98980634  0.00889520  0.09071234     2.26420
Zr104      Zr  0.07193747  0.09725557  0.00300873     2.06270
Zr105      Zr  0.39731439  0.41529159  0.00049809     2.10050
Zr106      Zr  0.03882896  0.45451902  0.99296539     1.78760
O107        O  0.31463412  0.40174027  0.01510029    -0.92470
O108        O  0.12863170  0.99030122  0.00569468    -0.40280
O109        O  0.47290510  0.43734136  0.04237877    -0.76910
O110        O  0.05664935  0.02475097  0.04239984    -0.95600
O111        O  0.00482004  0.08068107  0.05081145    -0.88900
O112        O  0.41254127  0.98410180  0.05119740    -0.91740
C113        C  0.04602720  0.44367278  0.87688281     1.02010
C114        C  0.36375354  0.41975307  0.88818211     1.14940
C115        C  0.06942470  0.12688026  0.88978152     1.05720
O116        O  0.15933486  0.12338275  0.99311679    -0.93900
O117        O  0.11158038  0.12195031  0.07953393    -0.89640
O118        O  0.06573730  0.06628761  0.13170254    -0.82790
C119        C  0.10441022  0.10607708  0.12001895     1.12360
O120        O  0.38486571  0.06373764  0.94428984    -0.95870
Zr121      Zr  0.42829908  0.05509437  0.00957199     1.88940
O122        O  0.46373715  0.06031123  0.13386255    -0.72520
O123        O  0.09430398  0.18457233  0.01832089    -0.51780
O124        O  0.45435776  0.14299599  0.99885907    -0.96460
O125        O  0.33849109  0.01605854  0.01965505    -0.53680
O126        O  0.42571299  0.08676080  0.08463169    -0.73040
C127        C  0.44243352  0.08561407  0.12426743     0.99300
O128        O  0.02485227  0.49016185  0.15697715    -0.61860
O129        O  0.35887626  0.32413283  0.98930396    -0.56660
O130        O  0.42956385  0.43614655  0.12778105    -0.93350
O131        O  0.39249875  0.37474490  0.07178793    -0.91770
O132        O  0.00145739  0.36317928  0.98925822    -0.92130
O133        O  0.07106819  0.42823887  0.05485648    -0.90910
C134        C  0.40205707  0.39023642  0.11375320     1.18150
H135        H  0.45552566  0.40261539  0.93260249     0.34090
H136        H  0.08608438  0.03184291  0.06026488     0.44940
H137        H  0.38616738  0.47473242  0.07211183     0.38470
H138        H  0.99937503  0.10354712  0.94522422     0.34950
H139        H  0.13627243  0.46481031  0.99343913     0.26740
H140        H  0.12675524  0.20486764  0.00412149     0.32670
H141        H  0.42599580  0.14663544  0.00861555     0.38580
H142        H  0.02914405  0.35746920  0.98164169     0.33040
H143        H  0.33244868  0.31357748  0.96508429     0.31920
H144        H  0.29156686  0.37312688  0.99409359     0.33600
H145        H  0.33240255  0.04448197  0.02386457     0.32570
H146        H  0.06492423  0.44342321  0.08212677     0.36570
H147        H  0.00209448  0.48417650  0.18195884     0.29300
H148        H  0.49211950  0.01202739  0.81517163     0.33530
H149        H  0.36781806  0.08135607  0.95583025     0.36380
H150        H  0.38500305  0.31942779  0.97539220     0.29000
H151        H  0.02179292  0.45715370  0.14945058     0.41870
H152        H  0.15977964  0.10936135  0.96266500     0.31920
H153        H  0.14461441  0.01908406  0.98583193     0.39540
H154        H  0.33241620  0.00089451  0.04947080     0.31390
H155        H  0.07011222  0.18881039  0.99935682     0.31450
H156        H  0.45154251  0.02616177  0.82633285     0.31720
Zr157      Zr  0.16005480  0.34087207  0.75611559     2.17510
O158        O  0.18217094  0.36661599  0.83634434    -0.50640
O159        O  0.11878725  0.26360687  0.79892919    -0.73840
O160        O  0.11259573  0.37532656  0.79000160    -0.80630
O161        O  0.29673564  0.37493562  0.73955146    -0.82370
O162        O  0.05286902  0.36137989  0.73653049    -0.78000
O163        O  0.24331332  0.38249223  0.78604136    -0.89630
O164        O  0.09167964  0.19596806  0.75008289    -0.75590
O165        O  0.08496336  0.28306037  0.71514143    -0.85090
O166        O  0.18195237  0.28615595  0.71697149    -0.84770
O167        O  0.14633242  0.39345737  0.70647433    -0.71530
O168        O  0.22740271  0.39073259  0.70825614    -0.83670
Zr169      Zr  0.15743178  0.33033948  0.57623174     2.26420
Zr170      Zr  0.07101385  0.33408797  0.66386235     2.06270
Zr171      Zr  0.24817719  0.33578208  0.66718123     2.10050
Zr172      Zr  0.10682011  0.22921822  0.67526375     1.78760
O173        O  0.32944956  0.39249000  0.63730334    -0.92470
O174        O  0.01591069  0.17925040  0.66516744    -0.40280
O175        O  0.17230333  0.27865181  0.62634038    -0.76910
O176        O  0.09118261  0.27816276  0.62468001    -0.95600
O177        O  0.13761983  0.38606356  0.61503195    -0.88900
O178        O  0.23356346  0.38736510  0.61646450    -0.91740
C179        C  0.09700676  0.21576835  0.79001273     1.02010
C180        C  0.28607582  0.38943639  0.77695546     1.14940
C181        C  0.07355914  0.37612833  0.77669969     1.05720
O182        O  0.98411787  0.27246204  0.67699004    -0.93900
O183        O  0.02487799  0.29838521  0.59022713    -0.89640
O184        O  0.07894043  0.30042814  0.53826955    -0.82790
C185        C  0.03640476  0.29209299  0.54968134     1.12360
O186        O  0.26327658  0.52712594  0.68914101    -0.95870
Zr187      Zr  0.21299781  0.44119294  0.65748551     1.88940
O188        O  0.18349395  0.40539340  0.53172446    -0.72520
O189        O  0.04454591  0.39454345  0.64855082    -0.51780
O190        O  0.17340165  0.49110495  0.67102792    -0.96460
O191        O  0.30335888  0.48340402  0.67119924    -0.53680
O192        O  0.22136598  0.47190100  0.58220562    -0.73040
C193        C  0.20689917  0.45307483  0.54188183     0.99300
O194        O  0.14226499  0.28064104  0.50527945    -0.61860
O195        O  0.28629818  0.28559728  0.68464201    -0.56660
O196        O  0.22127578  0.32028632  0.54393370    -0.93350
O197        O  0.23636453  0.28077645  0.59870882    -0.91770
O198        O  0.13703271  0.17018890  0.67814578    -0.92130
O199        O  0.07053811  0.16883767  0.61171264    -0.90910
C200        C  0.22845257  0.28546713  0.55654181     1.18150
H201        H  0.19136726  0.26808301  0.73713542     0.34090
H202        H  0.06294130  0.25190099  0.60715528     0.44940
H203        H  0.26061120  0.40554111  0.59654394     0.38470
H204        H  0.14291682  0.41898854  0.72268580     0.34950
H205        H  0.00617599  0.14434656  0.67227975     0.26740
H206        H  0.00884999  0.37722759  0.65597596     0.32670
H207        H  0.14757063  0.48006698  0.64618027     0.38580
H208        H  0.10688895  0.13713574  0.68282915     0.33040
H209        H  0.30431892  0.29915387  0.71436399     0.31920
H210        H  0.35359459  0.38867965  0.65675308     0.33600
H211        H  0.31744944  0.49284394  0.64108750     0.32570
H212        H  0.08133748  0.18952963  0.58482147     0.36570
H213        H  0.11184650  0.24743237  0.50882766     0.29300
H214        H  0.15103431  0.34679659  0.85260063     0.33530
H215        H  0.27166752  0.54875452  0.66287460     0.36380
H216        H  0.25766286  0.25191475  0.69045840     0.29000
H217        H  0.13344245  0.29690433  0.48132311     0.41870
H218        H  0.98433707  0.26309219  0.70865431     0.31920
H219        H  0.00282690  0.19157093  0.68944802     0.39540
H220        H  0.31004329  0.45638939  0.67918174     0.31390
H221        H  0.06178733  0.42189626  0.67234643     0.31450
H222        H  0.18975511  0.40196649  0.83981387     0.31720
C223        C  0.33484713  0.39303399  0.84543094     0.01260
C224        C  0.32318813  0.41755413  0.81386534     0.01260
C225        C  0.27528539  0.15166180  0.83108197     0.02980
C226        C  0.32150856  0.19777211  0.82915800     0.02980
C227        C  0.36777561  0.19807257  0.82740154     0.02980
C228        C  0.36818351  0.15222799  0.82932010     0.02980
C229        C  0.32158013  0.10554383  0.82879568     0.02980
C230        C  0.27524252  0.10538485  0.82918747     0.02980
C231        C  0.07070783  0.18080882  0.82707021     0.01260
C232        C  0.09493446  0.16344796  0.85450737     0.01260
C233        C  0.07220911  0.43366974  0.83916562     0.01110
C234        C  0.04809215  0.39058648  0.81091757     0.01260
C235        C  0.44025159  0.15335303  0.78985028     0.24290
C236        C  0.41772680  0.15356859  0.83024272    -0.23820
C237        C  0.44446973  0.15848169  0.87120584     0.19200
C238        C  0.49443539  0.16869201  0.87127647     0.24230
C239        C  0.51582637  0.16568912  0.83051828    -0.23760
C240        C  0.48539849  0.15339227  0.79053614     0.19130
F241        F  0.49863802  0.13987410  0.75189899    -0.13720
F242        F  0.41925397  0.15421252  0.74943324    -0.16080
F243        F  0.52233009  0.18411766  0.91070709    -0.16090
F244        F  0.42375297  0.15778962  0.91113563    -0.13720
C245        C  0.14814079  0.14187374  0.80693168     0.24290
C246        C  0.14452518  0.16853297  0.84471904    -0.23820
C247        C  0.18318875  0.18754541  0.87875934     0.19200
C248        C  0.22299307  0.17825591  0.87593204     0.24230
C249        C  0.22743999  0.15281520  0.83744155    -0.23760
C250        C  0.18967736  0.13566960  0.80259191     0.19130
F251        F  0.19513387  0.11740057  0.76231103    -0.13720
F252        F  0.11050240  0.12022700  0.77462633    -0.16080
F253        F  0.25840747  0.19579565  0.91026561    -0.16090
F254        F  0.18173529  0.21414085  0.91557599    -0.13720
C255        C  0.15840073  0.99669978  0.87399646     0.24290
C256        C  0.12670551  0.97394923  0.83483445    -0.23820
C257        C  0.14683570  0.99352537  0.79292723     0.19200
C258        C  0.19717625  0.03227147  0.79081134     0.24230
C259        C  0.22619016  0.05725800  0.83053714    -0.23760
C260        C  0.20530316  0.04008952  0.87212501     0.19130
F261        F  0.22996342  0.06599767  0.91126478    -0.13720
F262        F  0.14490409  0.97670675  0.91455517    -0.16080
F263        F  0.21624459  0.04874341  0.75009550    -0.16090
F264        F  0.11723319  0.47778297  0.75448100    -0.13720
C265        C  0.42075030  0.27653684  0.78525541     0.24290
C266        C  0.41577737  0.24720034  0.82249102    -0.23820
C267        C  0.45255547  0.26897173  0.85823921     0.19200
C268        C  0.49377421  0.31747882  0.85602003     0.24230
C269        C  0.49809327  0.34698321  0.81941356    -0.23760
C270        C  0.46045521  0.32641277  0.78450562     0.19130
F271        F  0.46334298  0.35410392  0.74868627    -0.13720
F272        F  0.38590272  0.25741288  0.75040746    -0.16080
F273        F  0.53052217  0.33500157  0.88913083    -0.16090
F274        F  0.44596384  0.24607849  0.89778435    -0.13720
C275        C  0.30991909  0.98065128  0.86025238     0.24290
C276        C  0.32953109  0.96890546  0.82230042    -0.23820
C277        C  0.34482899  0.00175336  0.78654698     0.19200
C278        C  0.33807949  0.04328729  0.78740516     0.24230
C279        C  0.32196502  0.05707486  0.82634885    -0.23760
C280        C  0.30842211  0.02543377  0.86301206     0.19130
F281        F  0.29312618  0.03733728  0.90143015    -0.13720
F282        F  0.29027244  0.44801760  0.89385522    -0.16080
F283        F  0.34526462  0.06878110  0.74930345    -0.16090
F284        F  0.36415121  0.99195471  0.74959882    -0.13720
C285        C  0.36691035  0.33422234  0.85451503     0.24290
C286        C  0.32936879  0.34205963  0.83627479    -0.23820
C287        C  0.28795443  0.29992100  0.81375297     0.19200
C288        C  0.29006124  0.25619449  0.80456605     0.24230
C289        C  0.32224891  0.24680056  0.83156603    -0.23760
C290        C  0.35635408  0.28585428  0.86146093     0.19130
F291        F  0.38021101  0.27774820  0.89609300    -0.13720
F292        F  0.41333710  0.37307453  0.86573485    -0.16080
F293        F  0.26001303  0.22325979  0.77084907    -0.16090
F294        F  0.24438940  0.29827102  0.80428593    -0.13720
C295        C  0.11036053  0.12338271  0.55063157     0.24290
C296        C  0.08539553  0.10312998  0.50835870    -0.23820
C297        C  0.10704910  0.12984021  0.47001952     0.19200
C298        C  0.14793922  0.17890594  0.47464827     0.24230
C299        C  0.17635433  0.19771047  0.51612469    -0.23760
C300        C  0.15703884  0.16824776  0.55404560     0.19130
F301        F  0.18246898  0.18305001  0.59468943    -0.13720
F302        F  0.08898117  0.10035243  0.58889388    -0.16080
F303        F  0.15704639  0.20883865  0.43929760    -0.16090
F304        F  0.08785469  0.10903081  0.42808355    -0.13720
C305        C  0.36008830  0.39761738  0.45622683     0.24290
C306        C  0.39107789  0.41544374  0.49606053    -0.23820
C307        C  0.37768426  0.38352172  0.53251122     0.19200
C308        C  0.33561162  0.33472817  0.52864538     0.24230
C309        C  0.30296658  0.31796325  0.48965247    -0.23760
C310        C  0.31550820  0.35063886  0.45388037     0.19130
F311        F  0.28474659  0.33700458  0.41630152    -0.13720
F312        F  0.37448024  0.42396839  0.41833886    -0.16080
F313        F  0.32780276  0.30328476  0.56261053    -0.16090
F314        F  0.40694421  0.39874159  0.57121884    -0.13720
C315        C  0.32861953  0.01969561  0.53509508     0.24290
C316        C  0.30324149  0.01251759  0.49287157    -0.23820
C317        C  0.32572961  0.50651847  0.45420666     0.19200
C318        C  0.37297168  0.51137230  0.45697171     0.24230
C319        C  0.39551765  0.01332024  0.49900945    -0.23760
C320        C  0.37207240  0.01597795  0.53834361     0.19130
F321        F  0.39204382  0.01660107  0.57977875    -0.13720
F322        F  0.31387558  0.03399424  0.57255350    -0.16080
F323        F  0.39672566  0.51412785  0.41831437    -0.16090
F324        F  0.30191446  0.49604964  0.41322691    -0.13720
C325        C  0.13735469  0.48220886  0.46298189     0.24290
C326        C  0.17036692  0.49908606  0.50154952    -0.23820
C327        C  0.15835489  0.01933390  0.53902047     0.19200
C328        C  0.11362937  0.01994469  0.53924387     0.24230
C329        C  0.08174160  0.00618911  0.50012093    -0.23760
C330        C  0.09446144  0.48728598  0.46172726     0.19130
F331        F  0.06420240  0.47172588  0.42364925    -0.13720
F332        F  0.14535789  0.45874189  0.42741581    -0.16080
F333        F  0.09954230  0.02925032  0.57947744    -0.16090
F334        F  0.18915778  0.03683142  0.57673964    -0.13720
C335        C  0.01323909  0.18024356  0.45914243     0.24290
C336        C  0.49768326  0.20017782  0.49436980    -0.23820
C337        C  0.48213024  0.17355456  0.53434957     0.19200
C338        C  0.48258584  0.12852897  0.53859239     0.24230
C339        C  0.49323304  0.10660027  0.50140173    -0.23760
C340        C  0.00628280  0.13199795  0.46109295     0.19130
F341        F  0.00919910  0.10875285  0.42263455    -0.13720
F342        F  0.03195346  0.20604490  0.42131739    -0.16080
F343        F  0.47081558  0.10548719  0.57839063    -0.16090
F344        F  0.46386568  0.18939871  0.56823250    -0.13720
C345        C  0.47151331  0.33637663  0.46661560     0.24290
C346        C  0.49573429  0.32943722  0.50459955    -0.23820
C347        C  0.01831624  0.37097192  0.53743180     0.19200
C348        C  0.00540998  0.40745783  0.53903554     0.24230
C349        C  0.48362423  0.41462226  0.50105913    -0.23760
C350        C  0.46615967  0.37883971  0.46490950     0.19130
F351        F  0.44565238  0.38615814  0.42731246    -0.13720
F352        F  0.45981396  0.30787114  0.42814877    -0.16080
F353        F  0.02058954  0.44039713  0.57554574    -0.16090
F354        F  0.06025846  0.38339764  0.56276227    -0.13720
C355        C  0.14128875  0.20568740  0.20338859     0.24290
C356        C  0.15293661  0.18940958  0.16286230    -0.23820
C357        C  0.16676761  0.22075183  0.12595083     0.19200
C358        C  0.16169497  0.26303264  0.12746855     0.24230
C359        C  0.15357947  0.28086294  0.16862125    -0.23760
C360        C  0.14628715  0.25326134  0.20728494     0.19130
F361        F  0.14184540  0.27131065  0.24820765    -0.13720
F362        F  0.12207390  0.17463611  0.23810297    -0.16080
F363        F  0.16423755  0.28623383  0.08864148    -0.16090
F364        F  0.18398900  0.21002654  0.08798127    -0.13720
C365        C  0.16074171  0.49924846  0.13521784     0.24290
C366        C  0.15236462  0.47009994  0.17330733    -0.23820
C367        C  0.14153448  0.48731445  0.21372674     0.19200
C368        C  0.14021227  0.53227773  0.21642547     0.24230
C369        C  0.15181020  0.06314690  0.17929309    -0.23760
C370        C  0.16232860  0.04592345  0.13847746     0.19130
F371        F  0.17647530  0.07519043  0.10220248    -0.13720
F372        F  0.16693290  0.48240824  0.09450349    -0.16080
F373        F  0.12868377  0.54636431  0.25613958    -0.16090
F374        F  0.13402916  0.46167299  0.25167935    -0.13720
C375        C  0.03999741  0.25106123  0.12638888     0.24290
C376        C  0.06027100  0.27727698  0.16813578    -0.23820
C377        C  0.04192025  0.25123645  0.20776048     0.19200
C378        C  0.00631782  0.19929464  0.20536582     0.24230
C379        C  0.98221004  0.17390430  0.16364420    -0.23760
C380        C  0.99970840  0.20146906  0.12424692     0.19130
F381        F  0.97863333  0.18083176  0.08299951    -0.13720
F382        F  0.06065499  0.27268576  0.08734452    -0.16080
F383        F  0.99850708  0.17324306  0.24327469    -0.16090
F384        F  0.06143227  0.27540121  0.24867438    -0.13720
C385        C  0.33213381  0.01929903  0.21620176     0.24290
C386        C  0.35235906  0.05090804  0.17982773    -0.23820
C387        C  0.32143604  0.53997499  0.14044135     0.19200
C388        C  0.27263801  0.49763028  0.13705209     0.24230
C389        C  0.25106547  0.46871867  0.17483077    -0.23760
C390        C  0.28211530  0.47981718  0.21410990     0.19130
F391        F  0.26401102  0.45173934  0.25069850    -0.13720
F392        F  0.36057825  0.02764136  0.25460611    -0.16080
F393        F  0.24747873  0.48409337  0.09632498    -0.16090
F394        F  0.33698889  0.57225129  0.10642058    -0.13720
C395        C  0.97423012  0.34310956  0.12934422     0.24290
C396        C  0.95569223  0.35286676  0.16909706    -0.23820
C397        C  0.98869712  0.37193911  0.20783367     0.19200
C398        C  0.03568635  0.37583321  0.20820122     0.24230
C399        C  0.05575808  0.36984879  0.16813441    -0.23760
C400        C  0.02391274  0.35277425  0.12864270     0.19130
F401        F  0.03974845  0.34224871  0.08983030    -0.13720
F402        F  0.44369202  0.32188136  0.09175336    -0.16080
F403        F  0.05910004  0.38036455  0.24873210    -0.16090
F404        F  0.97545303  0.38629270  0.24620892    -0.13720
C405        C  0.26159857  0.36586973  0.12522229     0.24290
C406        C  0.24663322  0.37173869  0.16810659    -0.23820
C407        C  0.27046826  0.36466706  0.20603028     0.19200
C408        C  0.31200560  0.35809669  0.20095341     0.24230
C409        C  0.32507584  0.34898599  0.15760413    -0.23760
C410        C  0.29556688  0.34896038  0.12027365     0.19130
F411        F  0.29974128  0.33284233  0.07838023    -0.13720
F412        F  0.24073593  0.37340533  0.08768794    -0.16080
F413        F  0.34041415  0.36363476  0.23841018    -0.16090
F414        F  0.25413525  0.36472718  0.24811131    -0.13720
Zr415      Zr  0.32499963  0.68334040  0.42388810     2.17510
O416        O  0.35223663  0.72414930  0.49959076    -0.50640
O417        O  0.29291038  0.60346411  0.46279230    -0.73840
O418        O  0.26470049  0.69811405  0.45944669    -0.80630
O419        O  0.45268289  0.71092018  0.40867665    -0.82370
O420        O  0.24231176  0.73548972  0.40722454    -0.78000
O421        O  0.40389205  0.71573263  0.46223852    -0.89630
O422        O  0.24562919  0.53807488  0.41258838    -0.75590
O423        O  0.24846319  0.63363975  0.38155117    -0.85090
O424        O  0.34060161  0.62591260  0.38262671    -0.84770
O425        O  0.31928241  0.74310683  0.37711980    -0.71530
O426        O  0.39277202  0.73393317  0.37640164    -0.83670
Zr427      Zr  0.31892849  0.67797472  0.24410505     2.26420
Zr428      Zr  0.24048357  0.69193423  0.33431606     2.06270
Zr429      Zr  0.40763375  0.67608106  0.33464710     2.10050
Zr430      Zr  0.26421136  0.57576827  0.33991842     1.78760
O431        O  0.49365281  0.73066655  0.31428167    -0.92470
O432        O  0.17345240  0.52248002  0.33973136    -0.40280
O433        O  0.33130555  0.62358966  0.29201070    -0.76910
O434        O  0.25262359  0.63046558  0.29368943    -0.95600
O435        O  0.30663067  0.73886604  0.28383693    -0.88900
O436        O  0.39706630  0.72998338  0.28388523    -0.91740
C437        C  0.26424107  0.55600707  0.45246509     1.02010
C438        C  0.44524804  0.72209584  0.44912423     1.14940
C439        C  0.25344743  0.73080453  0.44851407     1.05720
O440        O  0.15470302  0.64106150  0.35680812    -0.93900
O441        O  0.19128684  0.65527363  0.26103871    -0.89640
O442        O  0.24434154  0.66354425  0.20562628    -0.82790
C443        C  0.20084836  0.64887247  0.21966200     1.12360
O444        O  0.44123107  0.87807205  0.34135954    -0.95870
Zr445      Zr  0.38350702  0.78818402  0.32579307     1.88940
O446        O  0.35434176  0.75106473  0.19770842    -0.72520
O447        O  0.21836304  0.75346267  0.31073585    -0.51780
O448        O  0.35363819  0.84320832  0.35328689    -0.96460
O449        O  0.47379702  0.82526169  0.33703288    -0.53680
O450        O  0.38668286  0.81589690  0.24981449    -0.73040
C451        C  0.37683641  0.79823532  0.20890882     0.99300
O452        O  0.27838187  0.61645595  0.18061969    -0.61860
O453        O  0.43262201  0.61542087  0.35399049    -0.56660
O454        O  0.37682996  0.66004089  0.20751356    -0.93350
O455        O  0.40528428  0.63137616  0.26372191    -0.91770
O456        O  0.29994434  0.52170502  0.33136741    -0.92130
O457        O  0.23126096  0.51968850  0.27294812    -0.90910
C458        C  0.39547188  0.63416571  0.22173928     1.18150
H459        H  0.34926867  0.60633790  0.40167083     0.34090
H460        H  0.22360401  0.60532529  0.27623268     0.44940
H461        H  0.42434073  0.74622246  0.26379199     0.38470
H462        H  0.32381080  0.77058030  0.39698547     0.34950
H463        H  0.16718098  0.48871346  0.34718307     0.26740
H464        H  0.18420232  0.74071074  0.32142448     0.32670
H465        H  0.33292181  0.84382461  0.32766264     0.38580
H466        H  0.27201134  0.48701121  0.33525228     0.33040
H467        H  0.46898317  0.63280257  0.34929836     0.31920
H468        H  0.51424648  0.72485717  0.33655361     0.33600
H469        H  0.48633656  0.82946291  0.30611081     0.32570
H470        H  0.21440861  0.48534540  0.28441511     0.36570
H471        H  0.30155520  0.62837330  0.15549837     0.29300
H472        H  0.32499465  0.70370892  0.51989886     0.33530
H473        H  0.43604408  0.89530910  0.31593313     0.36380
H474        H  0.42994186  0.61313670  0.38717860     0.29000
H475        H  0.27757887  0.58566385  0.19047168     0.41870
H476        H  0.14403399  0.60647621  0.34495020     0.31920
H477        H  0.16350552  0.53459158  0.36668397     0.39540
H478        H  0.47883158  0.79838983  0.34872864     0.31390
H479        H  0.23978753  0.78408447  0.33033821     0.31450
H480        H  0.35298114  0.75657240  0.49799039     0.31720
C481        C  0.19954646  0.87468408  0.17157332     0.02980
C482        C  0.20017502  0.92132967  0.17156938     0.02980
C483        C  0.15317998  0.92121154  0.17089114     0.02980
C484        C  0.10640335  0.87351119  0.16932379     0.02980
C485        C  0.10738899  0.82785532  0.16999015     0.02980
C486        C  0.15346246  0.82893646  0.17096754     0.02980
C487        C  0.16004293  0.61596436  0.18610860     0.01260
C488        C  0.14217622  0.63672623  0.15635437     0.01260
C489        C  0.37549385  0.85379589  0.14850802     0.01260
C490        C  0.40046275  0.83539499  0.17353614     0.01260
C491        C  0.40003077  0.60102259  0.18766227     0.01260
C492        C  0.44019606  0.61895234  0.16050086     0.01260
C493        C  0.48563203  0.74037296  0.48415565     0.01260
C494        C  0.50197464  0.78363766  0.51156570     0.01260
C495        C  0.21318623  0.98929242  0.50644371     0.01260
C496        C  0.25820219  0.51889859  0.48674864     0.01260
C497        C  0.03369065  0.50833172  0.50063981     0.02980
C498        C  0.48578033  0.96325240  0.49806453     0.02980
C499        C  0.44058364  0.96438215  0.49791498     0.02980
C500        C  0.44295929  0.51161848  0.50103152     0.02980
C501        C  0.49050995  0.55699571  0.50363098     0.02980
C502        C  0.03572592  0.55530735  0.50436515     0.02980
C503        C  0.25657983  0.76603913  0.48586475     0.01260
C504        C  0.22407430  0.74868412  0.52022874     0.01260
Zr505      Zr  0.48215419  0.50538397  0.91179160     2.17510
O506        O  0.46052560  0.49993432  0.83093772    -0.50640
O507        O  0.02195898  0.46651978  0.86808583    -0.73840
O508        O  0.02967811  0.58561806  0.87742458    -0.80630
O509        O  0.35892198  0.89402874  0.92329149    -0.82370
O510        O  0.09053384  0.63685376  0.92979110    -0.78000
O511        O  0.39631437  0.96624457  0.88649456    -0.89630
O512        O  0.05347968  0.93349644  0.91700855    -0.75590
O513        O  0.05794087  0.52791918  0.95295582    -0.85090
O514        O  0.46401786  0.93201747  0.95170180    -0.84770
O515        O  0.99632954  0.57554474  0.96131369    -0.71530
O516        O  0.41390382  0.48673057  0.95960186    -0.83670
Zr517      Zr  0.98980788  0.50889671  0.09071096     2.26420
Zr518      Zr  0.07193591  0.59726020  0.00300749     2.06270
Zr519      Zr  0.39731099  0.91529144  0.00049879     2.10050
Zr520      Zr  0.03882370  0.95451149  0.99296719     1.78760
O521        O  0.31463325  0.90174555  0.01510336    -0.92470
O522        O  0.12864062  0.49032793  0.00568656    -0.40280
O523        O  0.47290038  0.93733826  0.04238015    -0.76910
O524        O  0.05665165  0.52475654  0.04239844    -0.95600
O525        O  0.00481796  0.58068200  0.05081077    -0.88900
O526        O  0.41254235  0.48410024  0.05119775    -0.91740
C527        C  0.04602676  0.94367033  0.87688401     1.02010
C528        C  0.36375336  0.91975423  0.88818107     1.14940
C529        C  0.06942099  0.62688444  0.88977927     1.05720
O530        O  0.15933417  0.62339241  0.99311345    -0.93900
O531        O  0.11158022  0.62195344  0.07953298    -0.89640
O532        O  0.06573901  0.56628885  0.13170114    -0.82790
C533        C  0.10441139  0.60607898  0.12001775     1.12360
O534        O  0.38485859  0.56373273  0.94429304    -0.95870
Zr535      Zr  0.42829592  0.55509200  0.00957342     1.88940
O536        O  0.46374031  0.56031229  0.13386335    -0.72520
O537        O  0.09429849  0.68457546  0.01832185    -0.51780
O538        O  0.45434670  0.64299187  0.99886178    -0.96460
O539        O  0.33848771  0.51605000  0.01965892    -0.53680
O540        O  0.42571032  0.58675709  0.08463406    -0.73040
C541        C  0.44243381  0.58561258  0.12426915     0.99300
O542        O  0.02484991  0.99016237  0.15698043    -0.61860
O543        O  0.35886360  0.82413158  0.98930504    -0.56660
O544        O  0.42956182  0.93614419  0.12778110    -0.93350
O545        O  0.39249916  0.87474310  0.07178742    -0.91770
O546        O  0.00144051  0.86317035  0.98925986    -0.92130
O547        O  0.07106293  0.92823382  0.05486015    -0.90910
C548        C  0.40205662  0.89023394  0.11375296     1.18150
H549        H  0.45551887  0.90261384  0.93260167     0.34090
H550        H  0.08608716  0.53184912  0.06026309     0.44940
H551        H  0.38616629  0.97473552  0.07211117     0.38470
H552        H  0.99937048  0.60354738  0.94522336     0.34950
H553        H  0.13626011  0.96478618  0.99343354     0.26740
H554        H  0.12674908  0.70487232  0.00412184     0.32670
H555        H  0.42598541  0.64662937  0.00862415     0.38580
H556        H  0.02912472  0.85745557  0.98164543     0.33040
H557        H  0.33243734  0.81357881  0.96508452     0.31920
H558        H  0.29156484  0.87313595  0.99409377     0.33600
H559        H  0.33239602  0.54447152  0.02386663     0.32570
H560        H  0.06491948  0.94341953  0.08212980     0.36570
H561        H  0.00209165  0.98417757  0.18196161     0.29300
H562        H  0.49211697  0.51202956  0.81517052     0.33530
H563        H  0.36781047  0.58135036  0.95583425     0.36380
H564        H  0.38498858  0.81942260  0.97539457     0.29000
H565        H  0.02179098  0.95715417  0.14945509     0.41870
H566        H  0.15977931  0.60937295  0.96266084     0.31920
H567        H  0.14461538  0.51909856  0.98580978     0.39540
H568        H  0.33241517  0.50088848  0.04947574     0.31390
H569        H  0.07010526  0.68881235  0.99935886     0.31450
H570        H  0.45153851  0.52616167  0.82633249     0.31720
Zr571      Zr  0.16005746  0.84087739  0.75610929     2.17510
O572        O  0.18218041  0.86663100  0.83633578    -0.50640
O573        O  0.11878776  0.76361323  0.79892411    -0.73840
O574        O  0.11259502  0.87532639  0.78999837    -0.80630
O575        O  0.29674018  0.87494559  0.73954640    -0.82370
O576        O  0.05286740  0.86137994  0.73652835    -0.78000
O577        O  0.24331354  0.88248987  0.78603972    -0.89630
O578        O  0.09168578  0.69597312  0.75008029    -0.75590
O579        O  0.08496765  0.78305703  0.71513594    -0.85090
O580        O  0.18196398  0.78616807  0.71696615    -0.84770
O581        O  0.14632890  0.89345941  0.70646930    -0.71530
O582        O  0.22740407  0.89074429  0.70824955    -0.83670
Zr583      Zr  0.15742931  0.83033762  0.57622652     2.26420
Zr584      Zr  0.07101089  0.83408339  0.66386083     2.06270
Zr585      Zr  0.24818506  0.83579767  0.66717451     2.10050
Zr586      Zr  0.10683521  0.72922164  0.67525957     1.78760
O587        O  0.32945225  0.89251026  0.63728963    -0.92470
O588        O  0.01593266  0.67919263  0.66512718    -0.40280
O589        O  0.17231335  0.77865994  0.62633605    -0.76910
O590        O  0.09118437  0.77816158  0.62467980    -0.95600
O591        O  0.13761214  0.88605822  0.61502578    -0.88900
O592        O  0.23356125  0.88737326  0.61645551    -0.91740
C593        C  0.09700907  0.71577454  0.79000934     1.02010
C594        C  0.28607725  0.88943816  0.77695291     1.14940
C595        C  0.07355802  0.87612798  0.77669770     1.05720
O596        O  0.98412076  0.77244807  0.67699912    -0.93900
O597        O  0.02487498  0.79838722  0.59022578    -0.89640
O598        O  0.07893313  0.80041726  0.53826956    -0.82790
C599        C  0.03639913  0.79208780  0.54968114     1.12360
O600        O  0.26325986  0.02715399  0.68907885    -0.95870
Zr601      Zr  0.21298876  0.94119654  0.65747565     1.88940
O602        O  0.18348951  0.90538494  0.53171081    -0.72520
O603        O  0.04453452  0.89452926  0.64853596    -0.51780
O604        O  0.17337682  0.99109189  0.67102918    -0.96460
O605        O  0.30334552  0.98341204  0.67122395    -0.53680
O606        O  0.22134994  0.97189393  0.58219106    -0.73040
C607        C  0.20688946  0.95306639  0.54186685     0.99300
O608        O  0.14226008  0.78063339  0.50527744    -0.61860
O609        O  0.28631890  0.78562430  0.68463659    -0.56660
O610        O  0.22127226  0.82028123  0.54392887    -0.93350
O611        O  0.23636887  0.78078155  0.59870871    -0.91770
O612        O  0.13709396  0.67023092  0.67815861    -0.92130
O613        O  0.07057933  0.66885381  0.61169738    -0.90910
C614        C  0.22845416  0.78546637  0.55654082     1.18150
H615        H  0.19138214  0.76809798  0.73713033     0.34090
H616        H  0.06294119  0.75189928  0.60715723     0.44940
H617        H  0.26060763  0.90555106  0.59653409     0.38470
H618        H  0.14291186  0.91898879  0.72268202     0.34950
H619        H  0.00621825  0.64430441  0.67227936     0.26740
H620        H  0.00884044  0.87721452  0.65596715     0.32670
H621        H  0.14757741  0.98008764  0.64615716     0.38580
H622        H  0.10695700  0.63716646  0.68282400     0.33040
H623        H  0.30433253  0.79917669  0.71436199     0.31920
H624        H  0.35360350  0.88872084  0.65675010     0.33600
H625        H  0.31745328  0.99289998  0.64112367     0.32570
H626        H  0.08137393  0.68955235  0.58481006     0.36570
H627        H  0.11184370  0.74742401  0.50882904     0.29300
H628        H  0.15104661  0.84680966  0.85259533     0.33530
H629        H  0.27164082  0.04875947  0.66279660     0.36380
H630        H  0.25768658  0.75193736  0.69044621     0.29000
H631        H  0.13343309  0.79689266  0.48132057     0.41870
H632        H  0.98434933  0.76306879  0.70865873     0.31920
H633        H  0.00282039  0.69152443  0.68937295     0.39540
H634        H  0.31003446  0.95639099  0.67917028     0.31390
H635        H  0.06177980  0.92188895  0.67232515     0.31450
H636        H  0.18975992  0.90198010  0.83980330     0.31720
C637        C  0.33484621  0.89303477  0.84543030     0.01260
C638        C  0.32318877  0.91755497  0.81386360     0.01260
C639        C  0.27528139  0.65166161  0.83108506     0.02980
C640        C  0.32150392  0.69777222  0.82916063     0.02980
C641        C  0.36777149  0.69807411  0.82740628     0.02980
C642        C  0.36818085  0.65223079  0.82932843     0.02980
C643        C  0.32157877  0.60554520  0.82880429     0.02980
C644        C  0.27524010  0.60538517  0.82919380     0.02980
C645        C  0.07070755  0.68081627  0.82706766     0.01260
C646        C  0.09493169  0.66345229  0.85450487     0.01260
C647        C  0.07220967  0.93366923  0.83916623     0.01110
C648        C  0.04809211  0.89058607  0.81091735     0.01260
C649        C  0.44025390  0.65337697  0.78985425     0.24290
C650        C  0.41772516  0.65357495  0.83024838    -0.23820
C651        C  0.44446797  0.65848168  0.87120978     0.19200
C652        C  0.49443445  0.66869436  0.87127784     0.24230
C653        C  0.51582737  0.66570217  0.83051705    -0.23760
C654        C  0.48540217  0.65342024  0.79053486     0.19130
F655        F  0.49864467  0.63991991  0.75189106    -0.13720
F656        F  0.41925746  0.65424818  0.74944035    -0.16080
F657        F  0.52232852  0.68411451  0.91070874    -0.16090
F658        F  0.42375146  0.65778471  0.91114081    -0.13720
C659        C  0.14813840  0.64187686  0.80693063     0.24290
C660        C  0.14452215  0.66853581  0.84471781    -0.23820
C661        C  0.18318462  0.68754684  0.87875911     0.19200
C662        C  0.22298785  0.67825546  0.87593328     0.24230
C663        C  0.22743563  0.65281511  0.83744295    -0.23760
C664        C  0.18967482  0.63567221  0.80259180     0.19130
F665        F  0.19513325  0.61740631  0.76231020    -0.13720
F666        F  0.11050104  0.62023123  0.77462426    -0.16080
F667        F  0.25840088  0.69579376  0.91026794    -0.16090
F668        F  0.18173110  0.71414280  0.91557533    -0.13720
C669        C  0.15840095  0.49669090  0.87399700     0.24290
C670        C  0.12670504  0.47394725  0.83483465    -0.23820
C671        C  0.14683429  0.49352825  0.79292860     0.19200
C672        C  0.19717410  0.53227593  0.79081429     0.24230
C673        C  0.22618803  0.55725805  0.83054125    -0.23760
C674        C  0.20530153  0.54008367  0.87212831     0.19130
F675        F  0.22996003  0.56598873  0.91126967    -0.13720
F676        F  0.14490735  0.47668609  0.91455209    -0.16080
F677        F  0.21624149  0.54875343  0.75009936    -0.16090
F678        F  0.11723416  0.97777889  0.75447994    -0.13720
C679        C  0.42074732  0.77653837  0.78525939     0.24290
C680        C  0.41577330  0.74720223  0.82249556    -0.23820
C681        C  0.45255238  0.76897252  0.85824300     0.19200
C682        C  0.49377341  0.81747811  0.85602236     0.24230
C683        C  0.49809382  0.84698221  0.81941511    -0.23760
C684        C  0.46045476  0.82641290  0.78450802     0.19130
F685        F  0.46334354  0.85410380  0.74868819    -0.13720
F686        F  0.38589909  0.75741523  0.75041197    -0.16080
F687        F  0.53052225  0.83499929  0.88913219    -0.16090
F688        F  0.44596091  0.74607837  0.89778780    -0.13720
C689        C  0.30991356  0.48064714  0.86025461     0.24290
C690        C  0.32952942  0.46890435  0.82230391    -0.23820
C691        C  0.34483411  0.50175708  0.78655421     0.19200
C692        C  0.33808993  0.54329459  0.78741522     0.24230
C693        C  0.32196633  0.55707661  0.82635643    -0.23760
C694        C  0.30841703  0.52543005  0.86301624     0.19130
F695        F  0.29311850  0.53733005  0.90143434    -0.13720
F696        F  0.29028113  0.94802484  0.89385561    -0.16080
F697        F  0.34529142  0.56879873  0.74931812    -0.16090
F698        F  0.36415992  0.49196132  0.74960715    -0.13720
C699        C  0.36690660  0.83422135  0.85451710     0.24290
C700        C  0.32936654  0.84205994  0.83627524    -0.23820
C701        C  0.28795217  0.79992208  0.81375278     0.19200
C702        C  0.29005802  0.75619503  0.80456634     0.24230
C703        C  0.32224378  0.74680008  0.83156817    -0.23760
C704        C  0.35634806  0.78585297  0.86146416     0.19130
F705        F  0.38020440  0.77774616  0.89609635    -0.13720
F706        F  0.41333410  0.87307231  0.86573673    -0.16080
F707        F  0.26001182  0.72326182  0.77084750    -0.16090
F708        F  0.24438764  0.79827299  0.80428602    -0.13720
C709        C  0.11037860  0.62337488  0.55064439     0.24290
C710        C  0.08540091  0.60312486  0.50837521    -0.23820
C711        C  0.10704781  0.62983438  0.47003383     0.19200
C712        C  0.14793940  0.67889952  0.47465825     0.24230
C713        C  0.17636130  0.69770526  0.51613104    -0.23760
C714        C  0.15705680  0.66824098  0.55405239     0.19130
F715        F  0.18249702  0.68304475  0.59469156    -0.13720
F716        F  0.08900947  0.60034612  0.58891016    -0.16080
F717        F  0.15704311  0.70882998  0.43930632    -0.16090
F718        F  0.08784741  0.60902375  0.42809946    -0.13720
C719        C  0.36008399  0.89761555  0.45622392     0.24290
C720        C  0.39107845  0.91544165  0.49605490    -0.23820
C721        C  0.37768827  0.88352006  0.53250573     0.19200
C722        C  0.33561445  0.83472708  0.52864250     0.24230
C723        C  0.30296674  0.81796113  0.48965128    -0.23760
C724        C  0.31550467  0.85063639  0.45387934     0.19130
F725        F  0.28474039  0.83700110  0.41630225    -0.13720
F726        F  0.37447139  0.92396664  0.41833571    -0.16080
F727        F  0.32780761  0.80328449  0.56260793    -0.16090
F728        F  0.40695246  0.89873975  0.57121081    -0.13720
C729        C  0.32862836  0.51971266  0.53510697     0.24290
C730        C  0.30324650  0.51252722  0.49288403    -0.23820
C731        C  0.32572766  0.00651525  0.45419364     0.19200
C732        C  0.37297058  0.01137136  0.45695882     0.24230
C733        C  0.39552121  0.51332594  0.49902243    -0.23760
C734        C  0.37208039  0.51599323  0.53835632     0.19130
F735        F  0.39205494  0.51662308  0.57979175    -0.13720
F736        F  0.31388860  0.53401970  0.57256348    -0.16080
F737        F  0.39672662  0.01413112  0.41830176    -0.16090
F738        F  0.30191433  0.99605020  0.41321341    -0.13720
C739        C  0.13734362  0.98219107  0.46296647     0.24290
C740        C  0.17036447  0.99908114  0.50152853    -0.23820
C741        C  0.15834258  0.51931651  0.53904851     0.19200
C742        C  0.11361268  0.51991902  0.53927114     0.24230
C743        C  0.08173688  0.50618063  0.50014223    -0.23760
C744        C  0.09445335  0.98727357  0.46171139     0.19130
F745        F  0.06418388  0.97169701  0.42363955    -0.13720
F746        F  0.14533618  0.95870774  0.42740671    -0.16080
F747        F  0.09951238  0.52920576  0.57950579    -0.16090
F748        F  0.18913705  0.53680372  0.57677304    -0.13720
C749        C  0.01323292  0.68023279  0.45914864     0.24290
C750        C  0.49768249  0.70017372  0.49437528    -0.23820
C751        C  0.48213711  0.67355699  0.53435924     0.19200
C752        C  0.48259776  0.62853465  0.53860635     0.24230
C753        C  0.49323954  0.60660124  0.50141595    -0.23760
C754        C  0.00627933  0.63198897  0.46110473     0.19130
F755        F  0.00918829  0.60873679  0.42264775    -0.13720
F756        F  0.03194080  0.70602735  0.42131921    -0.16080
F757        F  0.47083558  0.60549920  0.57840784    -0.16090
F758        F  0.46387415  0.68940326  0.56824194    -0.13720
C759        C  0.47149393  0.83636463  0.46662240     0.24290
C760        C  0.49573347  0.82943452  0.50459747    -0.23820
C761        C  0.01833835  0.87098094  0.53741463     0.19200
C762        C  0.00543988  0.90747303  0.53902106     0.24230
C763        C  0.48362989  0.91462475  0.50105475    -0.23760
C764        C  0.46614537  0.87883023  0.46491402     0.19130
F765        F  0.44561970  0.88613654  0.42732282    -0.13720
F766        F  0.45976374  0.80784315  0.42816333    -0.16080
F767        F  0.02064020  0.94042241  0.57552503    -0.16090
F768        F  0.06028434  0.88340171  0.56273711    -0.13720
C769        C  0.14129039  0.70568772  0.20338793     0.24290
C770        C  0.15293932  0.68941071  0.16286183    -0.23820
C771        C  0.16677103  0.72075340  0.12595070     0.19200
C772        C  0.16169808  0.76303401  0.12746845     0.24230
C773        C  0.15358125  0.78086342  0.16862101    -0.23760
C774        C  0.14628802  0.75326127  0.20728443     0.19130
F775        F  0.14184444  0.77130959  0.24820692    -0.13720
F776        F  0.12207491  0.67463584  0.23810184    -0.16080
F777        F  0.16424135  0.78623566  0.08864151    -0.16090
F778        F  0.18399262  0.71002823  0.08798118    -0.13720
C779        C  0.16074139  0.99924815  0.13521891     0.24290
C780        C  0.15236459  0.97009967  0.17330837    -0.23820
C781        C  0.14153417  0.98731409  0.21372772     0.19200
C782        C  0.14021217  0.03227758  0.21642655     0.24230
C783        C  0.15181030  0.56314697  0.17929198    -0.23760
C784        C  0.16232890  0.54592370  0.13847638     0.19130
F785        F  0.17647593  0.57519087  0.10220153    -0.13720
F786        F  0.16693205  0.98240768  0.09450451    -0.16080
F787        F  0.12868379  0.04636422  0.25614069    -0.16090
F788        F  0.13402898  0.96167266  0.25168036    -0.13720
C789        C  0.04000132  0.75105991  0.12638939     0.24290
C790        C  0.06027248  0.77727652  0.16813633    -0.23820
C791        C  0.04192028  0.75123650  0.20776101     0.19200
C792        C  0.00631778  0.69929468  0.20536649     0.24230
C793        C  0.98221185  0.67390343  0.16364457    -0.23760
C794        C  0.99971339  0.70146716  0.12424701     0.19130
F795        F  0.97864339  0.68082800  0.08299871    -0.13720
F796        F  0.06066037  0.77268440  0.08734540    -0.16080
F797        F  0.99850608  0.67324384  0.24327594    -0.16090
F798        F  0.06143115  0.77540172  0.24867497    -0.13720
C799        C  0.33213270  0.51929861  0.21620327     0.24290
C800        C  0.35235904  0.55090719  0.17982899    -0.23820
C801        C  0.32143567  0.03997579  0.14044041     0.19200
C802        C  0.27263780  0.99763085  0.13705147     0.24230
C803        C  0.25106605  0.96871895  0.17483019    -0.23760
C804        C  0.28211668  0.97981711  0.21410871     0.19130
F805        F  0.26401340  0.95173837  0.25069691    -0.13720
F806        F  0.36057617  0.52764098  0.25460831    -0.16080
F807        F  0.24747812  0.98409382  0.09632454    -0.16090
F808        F  0.33698826  0.07225203  0.10641957    -0.13720
C809        C  0.97423037  0.84310807  0.12934708     0.24290
C810        C  0.95569291  0.85286596  0.16909988    -0.23820
C811        C  0.98869804  0.87193803  0.20783657     0.19200
C812        C  0.03568724  0.87583212  0.20820369     0.24230
C813        C  0.05575865  0.86984773  0.16813666    -0.23760
C814        C  0.02391272  0.85277214  0.12864537     0.19130
F815        F  0.03974751  0.84224461  0.08983332    -0.13720
F816        F  0.44369163  0.82187725  0.09175475    -0.16080
F817        F  0.05910098  0.88036294  0.24873447    -0.16090
F818        F  0.97545439  0.88629104  0.24621252    -0.13720
C819        C  0.26160044  0.86587126  0.12522221     0.24290
C820        C  0.24663454  0.87173915  0.16810656    -0.23820
C821        C  0.27046811  0.86466504  0.20602999     0.19200
C822        C  0.31200444  0.85809296  0.20095301     0.24230
C823        C  0.32507536  0.84898360  0.15760357    -0.23760
C824        C  0.29556764  0.84896052  0.12027312     0.19130
F825        F  0.29974207  0.83284345  0.07837928    -0.13720
F826        F  0.24073870  0.87340848  0.08768814    -0.16080
F827        F  0.34041121  0.86362760  0.23841005    -0.16090
F828        F  0.25413446  0.86472419  0.24811091    -0.13720
Zr829      Zr  0.82500196  0.18334321  0.42388678     2.17510
O830        O  0.85221199  0.22410293  0.49960963    -0.50640
O831        O  0.79291661  0.10346154  0.46278348    -0.73840
O832        O  0.76470610  0.19812233  0.45944588    -0.80630
O833        O  0.95268084  0.21091406  0.40867822    -0.82370
O834        O  0.74231215  0.23549302  0.40722279    -0.78000
O835        O  0.90390380  0.21576955  0.46223005    -0.89630
O836        O  0.74562378  0.03807456  0.41258137    -0.75590
O837        O  0.74846581  0.13364323  0.38154899    -0.85090
O838        O  0.84060300  0.12591519  0.38262462    -0.84770
O839        O  0.81928327  0.24310946  0.37711889    -0.71530
O840        O  0.89277858  0.23394178  0.37640377    -0.83670
Zr841      Zr  0.81892910  0.17797762  0.24410311     2.26420
Zr842      Zr  0.74048477  0.19193725  0.33431479     2.06270
Zr843      Zr  0.90763520  0.17608559  0.33464616     2.10050
Zr844      Zr  0.76421323  0.07577191  0.33991473     1.78760
O845        O  0.99365512  0.23066540  0.31428015    -0.92470
O846        O  0.67345485  0.02247755  0.33972776    -0.40280
O847        O  0.83130775  0.12359418  0.29200880    -0.76910
O848        O  0.75262431  0.13046882  0.29368731    -0.95600
O849        O  0.80663102  0.23886887  0.28383498    -0.88900
O850        O  0.89706655  0.22998645  0.28388372    -0.91740
C851        C  0.76424150  0.05600504  0.45245661     1.02010
C852        C  0.94525300  0.22210937  0.44912117     1.14940
C853        C  0.75344835  0.23080914  0.44851258     1.05720
O854        O  0.65470453  0.14106046  0.35680548    -0.93900
O855        O  0.69128727  0.15527577  0.26103817    -0.89640
O856        O  0.74434131  0.16354613  0.20562520    -0.82790
C857        C  0.70084826  0.14887379  0.21966153     1.12360
O858        O  0.94122574  0.37807759  0.34134862    -0.95870
Zr859      Zr  0.88350727  0.28818698  0.32579113     1.88940
O860        O  0.85434456  0.25106670  0.19770638    -0.72520
O861        O  0.71836108  0.25346386  0.31073607    -0.51780
O862        O  0.85364479  0.34321422  0.35329148    -0.96460
O863        O  0.97379812  0.32526346  0.33701631    -0.53680
O864        O  0.88667896  0.31589864  0.24981242    -0.73040
C865        C  0.87683590  0.29823702  0.20890677     0.99300
O866        O  0.77838210  0.11645923  0.18061750    -0.61860
O867        O  0.93262174  0.11542310  0.35398562    -0.56660
O868        O  0.87682883  0.16004105  0.20751196    -0.93350
O869        O  0.90528498  0.13137908  0.26372128    -0.91770
O870        O  0.79995435  0.02171646  0.33135983    -0.92130
O871        O  0.73126371  0.01969477  0.27294275    -0.90910
C872        C  0.89547160  0.13416692  0.22173843     1.18150
H873        H  0.84927077  0.10634007  0.40166741     0.34090
H874        H  0.72360468  0.10532796  0.27623104     0.44940
H875        H  0.92434085  0.24622529  0.26379032     0.38470
H876        H  0.82381157  0.27058273  0.39698471     0.34950
H877        H  0.66718637  0.98871268  0.34718206     0.26740
H878        H  0.68420432  0.24071618  0.32143324     0.32670
H879        H  0.83292697  0.34383207  0.32766928     0.38580
H880        H  0.77202271  0.98702064  0.33523952     0.33040
H881        H  0.96898280  0.13280434  0.34929304     0.31920
H882        H  0.01424813  0.22486181  0.33655767     0.33600
H883        H  0.98633253  0.32947052  0.30609210     0.32570
H884        H  0.71441370  0.98535118  0.28440861     0.36570
H885        H  0.80155518  0.12837683  0.15549600     0.29300
H886        H  0.82496480  0.20364191  0.51990579     0.33530
H887        H  0.93603548  0.39531056  0.31592051     0.36380
H888        H  0.92994198  0.11313752  0.38717367     0.29000
H889        H  0.77757925  0.08566704  0.19046903     0.41870
H890        H  0.64403740  0.10647583  0.34494697     0.31920
H891        H  0.66350608  0.03458934  0.36667895     0.39540
H892        H  0.97883340  0.29838819  0.34870182     0.31390
H893        H  0.73979239  0.28408899  0.33033231     0.31450
H894        H  0.85295003  0.25652464  0.49803088     0.31720
C895        C  0.69954538  0.37468376  0.17157294     0.02980
C896        C  0.70017449  0.42132958  0.17156907     0.02980
C897        C  0.65317975  0.42121190  0.17089019     0.02980
C898        C  0.60640284  0.37351189  0.16932247     0.02980
C899        C  0.60738793  0.32785572  0.16998924     0.02980
C900        C  0.65346116  0.32893631  0.17096721     0.02980
C901        C  0.66004247  0.11596437  0.18610916     0.01260
C902        C  0.64217456  0.13672529  0.15635527     0.01260
C903        C  0.87549389  0.35379813  0.14850719     0.01260
C904        C  0.90046251  0.33539661  0.17353440     0.01260
C905        C  0.90003063  0.10102325  0.18766195     0.01260
C906        C  0.94019527  0.11895312  0.16049986     0.01260
C907        C  0.98563619  0.24038078  0.48415360     0.01260
C908        C  0.00198011  0.28364365  0.51156613     0.01260
C909        C  0.71319101  0.48929970  0.50645825     0.01260
C910        C  0.75820011  0.01889376  0.48673790     0.01260
C911        C  0.53369219  0.00833591  0.50062247     0.02980
C912        C  0.98577761  0.46325055  0.49807383     0.02980
C913        C  0.94058296  0.46438300  0.49792473     0.02980
C914        C  0.94295759  0.01161679  0.50101857     0.02980
C915        C  0.99050643  0.05699572  0.50361444     0.02980
C916        C  0.53572316  0.05530991  0.50434439     0.02980
C917        C  0.75657770  0.26604241  0.48586320     0.01260
C918        C  0.72406924  0.24868673  0.52022533     0.01260
Zr919      Zr  0.98215451  0.00538103  0.91179295     2.17510
O920        O  0.96052744  0.99993247  0.83093874    -0.50640
O921        O  0.52196040  0.96651927  0.86808756    -0.73840
O922        O  0.52968129  0.08561553  0.87742698    -0.80630
O923        O  0.85892335  0.39402715  0.92329050    -0.82370
O924        O  0.59053864  0.13684977  0.92979278    -0.78000
O925        O  0.89631256  0.46624408  0.88649520    -0.89630
O926        O  0.55348290  0.43350293  0.91700722    -0.75590
O927        O  0.55794039  0.02791357  0.95295786    -0.85090
O928        O  0.96402212  0.43202202  0.95170127    -0.84770
O929        O  0.49633284  0.07554436  0.96131413    -0.71530
O930        O  0.91390421  0.98673059  0.95960219    -0.83670
Zr931      Zr  0.48980632  0.00889562  0.09071212     2.26420
Zr932      Zr  0.57193767  0.09725602  0.00300855     2.06270
Zr933      Zr  0.89731380  0.41529126  0.00049712     2.10050
Zr934      Zr  0.53882951  0.45451960  0.99296546     1.78760
O935        O  0.81463365  0.40174015  0.01509957    -0.92470
O936        O  0.62863179  0.99030175  0.00569458    -0.40280
O937        O  0.97290427  0.43734086  0.04237820    -0.76910
O938        O  0.55664942  0.02475140  0.04239972    -0.95600
O939        O  0.50482012  0.08068148  0.05081113    -0.88900
O940        O  0.91254120  0.98410124  0.05119775    -0.91740
C941        C  0.54602671  0.44367331  0.87688247     1.02010
C942        C  0.86375323  0.41975304  0.88818076     1.14940
C943        C  0.56942512  0.12688101  0.88978140     1.05720
O944        O  0.65933503  0.12338319  0.99311649    -0.93900
O945        O  0.61158056  0.12195052  0.07953377    -0.89640
O946        O  0.56573744  0.06628778  0.13170235    -0.82790
C947        C  0.60441041  0.10607723  0.12001878     1.12360
O948        O  0.88486518  0.06373695  0.94429052    -0.95870
Zr949      Zr  0.92829888  0.05509385  0.00957250     1.88940
O950        O  0.96373721  0.06031067  0.13386311    -0.72520
O951        O  0.59430413  0.18457272  0.01832102    -0.51780
O952        O  0.95435749  0.14299543  0.99885945    -0.96460
O953        O  0.83849094  0.01605804  0.01965584    -0.53680
O954        O  0.92571289  0.08676017  0.08463237    -0.73040
C955        C  0.94243351  0.08561347  0.12426811     0.99300
O956        O  0.52485343  0.49016227  0.15697735    -0.61860
O957        O  0.85887514  0.32413246  0.98930275    -0.56660
O958        O  0.92956301  0.43614577  0.12778004    -0.93350
O959        O  0.89249831  0.37474425  0.07178675    -0.91770
O960        O  0.50145778  0.36317984  0.98925833    -0.92130
O961        O  0.57106941  0.42823945  0.05485602    -0.90910
C962        C  0.90205647  0.39023566  0.11375206     1.18150
H963        H  0.95552524  0.40261504  0.93260179     0.34090
H964        H  0.58608442  0.03184327  0.06026477     0.44940
H965        H  0.88616674  0.47473206  0.07211090     0.38470
H966        H  0.49937536  0.10354767  0.94522387     0.34950
H967        H  0.63627302  0.46481094  0.99343838     0.26740
H968        H  0.62675537  0.20486811  0.00412161     0.32670
H969        H  0.92599562  0.14663495  0.00861614     0.38580
H970        H  0.52914419  0.35746966  0.98164100     0.33040
H971        H  0.83244849  0.31357747  0.96508224     0.31920
H972        H  0.79156632  0.37312689  0.99409277     0.33600
H973        H  0.83240242  0.04448148  0.02386544     0.32570
H974        H  0.56492543  0.44342354  0.08212648     0.36570
H975        H  0.50209595  0.48417713  0.18195926     0.29300
H976        H  0.99211885  0.01202662  0.81517187     0.33530
H977        H  0.86781767  0.08135552  0.95583096     0.36380
H978        H  0.88500229  0.31942719  0.97539209     0.29000
H979        H  0.52179383  0.45715401  0.14945076     0.41870
H980        H  0.65977977  0.10936176  0.96266470     0.31920
H981        H  0.64461442  0.01908424  0.98583143     0.39540
H982        H  0.83241615  0.00089401  0.04947158     0.31390
H983        H  0.57011234  0.18881083  0.99935703     0.31450
H984        H  0.95154177  0.02616083  0.82633316     0.31720
Zr985      Zr  0.66005360  0.34087271  0.75611451     2.17510
O986        O  0.68217060  0.36661877  0.83634282    -0.50640
O987        O  0.61878661  0.26360778  0.79892871    -0.73840
O988        O  0.61259413  0.37532682  0.79000034    -0.80630
O989        O  0.79673411  0.37493533  0.73955030    -0.82370
O990        O  0.55286797  0.36138145  0.73652907    -0.78000
O991        O  0.74331200  0.38249176  0.78604060    -0.89630
O992        O  0.59167942  0.19596870  0.75008284    -0.75590
O993        O  0.58496192  0.28306101  0.71514064    -0.85090
O994        O  0.68195074  0.28615618  0.71697070    -0.84770
O995        O  0.64633127  0.39345791  0.70647298    -0.71530
O996        O  0.72740136  0.39073294  0.70825475    -0.83670
Zr997      Zr  0.65742932  0.33033805  0.57623071     2.26420
Zr998      Zr  0.57101247  0.33408853  0.66386124     2.06270
Zr999      Zr  0.74817537  0.33578185  0.66718018     2.10050
Zr1000     Zr  0.60681823  0.22921820  0.67526345     1.78760
O1001       O  0.82944763  0.39248996  0.63730224    -0.92470
O1002       O  0.51590863  0.17925153  0.66516839    -0.40280
O1003       O  0.67230137  0.27865105  0.62633972    -0.76910
O1004       O  0.59118031  0.27816227  0.62467950    -0.95600
O1005       O  0.63761822  0.38606303  0.61503035    -0.88900
O1006       O  0.73356127  0.38736418  0.61646295    -0.91740
C1007       C  0.59700665  0.21576921  0.79001258     1.02010
C1008       C  0.78607445  0.38943589  0.77695449     1.14940
C1009       C  0.57355794  0.37612929  0.77669840     1.05720
O1010       O  0.48411603  0.27246470  0.67698954    -0.93900
O1011       O  0.52487613  0.29838611  0.59022619    -0.89640
O1012       O  0.57893725  0.30042480  0.53826920    -0.82790
C1013       C  0.53640210  0.29209146  0.54968076     1.12360
O1014       O  0.76327525  0.52712672  0.68913686    -0.95870
Zr1015     Zr  0.71299624  0.44119276  0.65748351     1.88940
O1016       O  0.68349130  0.40539114  0.53172241    -0.72520
O1017       O  0.54454775  0.39454567  0.64854624    -0.51780
O1018       O  0.67340002  0.49110477  0.67102576    -0.96460
O1019       O  0.80335726  0.48340375  0.67119747    -0.53680
O1020       O  0.72136371  0.47189935  0.58220294    -0.73040
C1021       C  0.70689689  0.45307267  0.54187927     0.99300
O1022       O  0.64226237  0.28063889  0.50527883    -0.61860
O1023       O  0.78629623  0.28559692  0.68464088    -0.56660
O1024       O  0.72127353  0.32028543  0.54393259    -0.93350
O1025       O  0.73636298  0.28077625  0.59870790    -0.91770
O1026       O  0.63702974  0.17018798  0.67814525    -0.92130
O1027       O  0.57053655  0.16883704  0.61171272    -0.90910
C1028       C  0.72845087  0.28546666  0.55654087     1.18150
H1029       H  0.69136570  0.26808339  0.73713472     0.34090
H1030       H  0.56293860  0.25190038  0.60715527     0.44940
H1031       H  0.76060889  0.40553990  0.59654220     0.38470
H1032       H  0.64291588  0.41898921  0.72268445     0.34950
H1033       H  0.50617364  0.14434735  0.67227968     0.26740
H1034       H  0.50885135  0.37723057  0.65596972     0.32670
H1035       H  0.64757315  0.48007119  0.64617491     0.38580
H1036       H  0.60688588  0.13713515  0.68282935     0.33040
H1037       H  0.80431755  0.29915389  0.71436258     0.31920
H1038       H  0.85359309  0.38868224  0.65675385     0.33600
H1039       H  0.81744785  0.49284280  0.64108566     0.32570
H1040       H  0.58133579  0.18952883  0.58482143     0.36570
H1041       H  0.61184446  0.24742991  0.50882761     0.29300
H1042       H  0.65103429  0.34679945  0.85259956     0.33530
H1043       H  0.77166587  0.54875437  0.66286982     0.36380
H1044       H  0.75766092  0.25191460  0.69045785     0.29000
H1045       H  0.63343885  0.29690133  0.48132241     0.41870
H1046       H  0.48433550  0.26309314  0.70865317     0.31920
H1047       H  0.50282553  0.19157171  0.68944987     0.39540
H1048       H  0.81004151  0.45638924  0.67918080     0.31390
H1049       H  0.56178841  0.42189819  0.67234222     0.31450
H1050       H  0.68975436  0.40196919  0.83981166     0.31720
C1051       C  0.83484647  0.39303372  0.84542975     0.01260
C1052       C  0.82318705  0.41755365  0.81386424     0.01260
C1053       C  0.77528540  0.15166190  0.83108194     0.02980
C1054       C  0.82150864  0.19777211  0.82915784     0.02980
C1055       C  0.86777563  0.19807243  0.82740168     0.02980
C1056       C  0.86818341  0.15222782  0.82932036     0.02980
C1057       C  0.82158000  0.10554373  0.82879596     0.02980
C1058       C  0.77524244  0.10538489  0.82918771     0.02980
C1059       C  0.57070810  0.18080973  0.82707026     0.01260
C1060       C  0.59493484  0.16344884  0.85450728     0.01260
C1061       C  0.57220842  0.43367041  0.83916494     0.01110
C1062       C  0.54809115  0.39058739  0.81091655     0.01260
C1063       C  0.94025154  0.15335316  0.78985037     0.24290
C1064       C  0.91772667  0.15356832  0.83024286    -0.23820
C1065       C  0.94446955  0.15848110  0.87120593     0.19200
C1066       C  0.99443517  0.16869129  0.87127648     0.24230
C1067       C  0.01582618  0.16568864  0.83051822    -0.23760
C1068       C  0.98539842  0.15339238  0.79053606     0.19130
F1069       F  0.99863803  0.13987476  0.75189869    -0.13720
F1070       F  0.91925396  0.15421299  0.74943342    -0.16080
F1071       F  0.02232983  0.18411670  0.91070712    -0.16090
F1072       F  0.92375279  0.15778881  0.91113576    -0.13720
C1073       C  0.64814104  0.14187450  0.80693155     0.24290
C1074       C  0.64452556  0.16853386  0.84471886    -0.23820
C1075       C  0.68318915  0.18754622  0.87875915     0.19200
C1076       C  0.72299334  0.17825650  0.87593187     0.24230
C1077       C  0.72744009  0.15281556  0.83744146    -0.23760
C1078       C  0.68967746  0.13567007  0.80259183     0.19130
F1079       F  0.69513381  0.11740085  0.76231099    -0.13720
F1080       F  0.61050265  0.12022786  0.77462620    -0.16080
F1081       F  0.75840776  0.19579621  0.91026541    -0.16090
F1082       F  0.68173577  0.21414171  0.91557579    -0.13720
C1083       C  0.65840082  0.99669952  0.87399662     0.24290
C1084       C  0.62670553  0.97394921  0.83483462    -0.23820
C1085       C  0.64683558  0.99352557  0.79292744     0.19200
C1086       C  0.69717609  0.03227172  0.79081155     0.24230
C1087       C  0.72619005  0.05725811  0.83053737    -0.23760
C1088       C  0.70530316  0.04008940  0.87212524     0.19130
F1089       F  0.72996342  0.06599742  0.91126505    -0.13720
F1090       F  0.64490434  0.97670602  0.91455520    -0.16080
F1091       F  0.71624438  0.04874380  0.75009573    -0.16090
F1092       F  0.61723264  0.47778350  0.75448015    -0.13720
C1093       C  0.92075102  0.27653668  0.78525579     0.24290
C1094       C  0.91577753  0.24720007  0.82249145    -0.23820
C1095       C  0.95255534  0.26897116  0.85823988     0.19200
C1096       C  0.99377440  0.31747807  0.85602087     0.24230
C1097       C  0.99809404  0.34698255  0.81941431    -0.23760
C1098       C  0.96045624  0.32641245  0.78450617     0.19130
F1099       F  0.96334455  0.35410376  0.74868679    -0.13720
F1100       F  0.88590372  0.25741297  0.75040761    -0.16080
F1101       F  0.03052208  0.33500056  0.88913192    -0.16090
F1102       F  0.94596313  0.24607776  0.89778501    -0.13720
C1103       C  0.80991907  0.98065120  0.86025263     0.24290
C1104       C  0.82953129  0.96890552  0.82230074    -0.23820
C1105       C  0.84482926  0.00175351  0.78654736     0.19200
C1106       C  0.83807956  0.04328731  0.78740549     0.24230
C1107       C  0.82196485  0.05707473  0.82634911    -0.23760
C1108       C  0.80842196  0.02543362  0.86301230     0.19130
F1109       F  0.79312602  0.03733708  0.90143040    -0.13720
F1110       F  0.79027231  0.44801770  0.89385440    -0.16080
F1111       F  0.84526484  0.06878121  0.74930382    -0.16090
F1112       F  0.86415176  0.99195504  0.74959930    -0.13720
C1113       C  0.86691016  0.33422246  0.85451409     0.24290
C1114       C  0.82936851  0.34205950  0.83627361    -0.23820
C1115       C  0.78795444  0.29992074  0.81375158     0.19200
C1116       C  0.79006152  0.25619432  0.80456498     0.24230
C1117       C  0.82224907  0.24680060  0.83156537    -0.23760
C1118       C  0.85635407  0.28585450  0.86146021     0.19130
F1119       F  0.88021095  0.27774870  0.89609250    -0.13720
F1120       F  0.91333682  0.37307477  0.86573408    -0.16080
F1121       F  0.76001360  0.22325942  0.77084798    -0.16090
F1122       F  0.74438934  0.29827045  0.80428413    -0.13720
C1123       C  0.61035995  0.12338239  0.55063125     0.24290
C1124       C  0.58539493  0.10312930  0.50835847    -0.23820
C1125       C  0.60704852  0.12983909  0.47001908     0.19200
C1126       C  0.64793859  0.17890487  0.47464751     0.24230
C1127       C  0.67635361  0.19770992  0.51612393    -0.23760
C1128       C  0.65703817  0.16824753  0.55404506     0.19130
F1129       F  0.68246827  0.18305013  0.59468891    -0.13720
F1130       F  0.58898078  0.10035231  0.58889369    -0.16080
F1131       F  0.65704557  0.20883718  0.43929656    -0.16090
F1132       F  0.58785411  0.10902924  0.42808321    -0.13720
C1133       C  0.86008953  0.39761665  0.45622634     0.24290
C1134       C  0.89107771  0.41544319  0.49606077    -0.23820
C1135       C  0.87768282  0.38352156  0.53251179     0.19200
C1136       C  0.83561005  0.33472817  0.52864566     0.24230
C1137       C  0.80296585  0.31796332  0.48965216    -0.23760
C1138       C  0.81550892  0.35063859  0.45387962     0.19130
F1139       F  0.78474819  0.33700454  0.41630019    -0.13720
F1140       F  0.87448288  0.42396749  0.41833834    -0.16080
F1141       F  0.82780037  0.30328488  0.56261108    -0.16090
F1142       F  0.90694155  0.39874167  0.57122013    -0.13720
C1143       C  0.82862081  0.01969739  0.53509623     0.24290
C1144       C  0.80324282  0.01252001  0.49287280    -0.23820
C1145       C  0.82572953  0.50651673  0.45420624     0.19200
C1146       C  0.87297174  0.51137092  0.45697217     0.24230
C1147       C  0.89551834  0.01332128  0.49901013    -0.23760
C1148       C  0.87207336  0.01597910  0.53834446     0.19130
F1149       F  0.89204478  0.01660178  0.57977947    -0.13720
F1150       F  0.81387714  0.03399597  0.57255487    -0.16080
F1151       F  0.89672636  0.51412640  0.41831528    -0.16090
F1152       F  0.80191513  0.49604793  0.41322611    -0.13720
C1153       C  0.63735248  0.48220518  0.46297900     0.24290
C1154       C  0.67036628  0.49908460  0.50154561    -0.23820
C1155       C  0.65835450  0.01933410  0.53902150     0.19200
C1156       C  0.61362849  0.01994402  0.53924463     0.24230
C1157       C  0.58174119  0.00618858  0.50012139    -0.23760
C1158       C  0.59445986  0.48728347  0.46172437     0.19130
F1159       F  0.56419884  0.47172045  0.42364754    -0.13720
F1160       F  0.64535366  0.45873526  0.42741400    -0.16080
F1161       F  0.59954067  0.02924906  0.57947807    -0.16090
F1162       F  0.68915690  0.03683146  0.57674099    -0.13720
C1163       C  0.51323820  0.18024238  0.45914210     0.24290
C1164       C  0.99768423  0.20017900  0.49437020    -0.23820
C1165       C  0.98213125  0.17355565  0.53434993     0.19200
C1166       C  0.98258672  0.12852995  0.53859261     0.24230
C1167       C  0.99323374  0.10660120  0.50140187    -0.23760
C1168       C  0.50628213  0.13199689  0.46109278     0.19130
F1169       F  0.50919864  0.10875177  0.42263450    -0.13720
F1170       F  0.53195227  0.20604349  0.42131689    -0.16080
F1171       F  0.97081652  0.10548813  0.57839083    -0.16090
F1172       F  0.96386694  0.18939988  0.56823301    -0.13720
C1173       C  0.97152121  0.33638031  0.46661374     0.24290
C1174       C  0.99573578  0.32943819  0.50460102    -0.23820
C1175       C  0.51832067  0.37097380  0.53742736     0.19200
C1176       C  0.50541582  0.40746079  0.53903240     0.24230
C1177       C  0.98362319  0.41462134  0.50106002    -0.23760
C1178       C  0.96616525  0.37884214  0.46490790     0.19130
F1179       F  0.94566363  0.38616370  0.42730873    -0.13720
F1180       F  0.95983313  0.30788019  0.42814435    -0.16080
F1181       F  0.52059980  0.44040186  0.57554152    -0.16090
F1182       F  0.56026448  0.38339877  0.56275501    -0.13720
C1183       C  0.64128902  0.20568755  0.20338839     0.24290
C1184       C  0.65293688  0.18940973  0.16286211    -0.23820
C1185       C  0.66676773  0.22075191  0.12595060     0.19200
C1186       C  0.66169487  0.26303260  0.12746827     0.24230
C1187       C  0.65357945  0.28086295  0.16862097    -0.23760
C1188       C  0.64628732  0.25326145  0.20728470     0.19130
F1189       F  0.64184571  0.27131084  0.24820742    -0.13720
F1190       F  0.62207425  0.17463629  0.23810281    -0.16080
F1191       F  0.66423723  0.28623365  0.08864115    -0.16090
F1192       F  0.68398917  0.21002668  0.08798105    -0.13720
C1193       C  0.66074238  0.49924888  0.13521790     0.24290
C1194       C  0.65236496  0.47010020  0.17330734    -0.23820
C1195       C  0.64153443  0.48731456  0.21372663     0.19200
C1196       C  0.64021246  0.53227799  0.21642536     0.24230
C1197       C  0.65181041  0.06314700  0.17929295    -0.23760
C1198       C  0.66232857  0.04592331  0.13847732     0.19130
F1199       F  0.67647516  0.07519011  0.10220222    -0.13720
F1200       F  0.66693367  0.48240871  0.09450358    -0.16080
F1201       F  0.62868383  0.54636455  0.25613941    -0.16090
F1202       F  0.63402862  0.46167291  0.25167918    -0.13720
C1203       C  0.53999731  0.25106183  0.12638870     0.24290
C1204       C  0.56027109  0.27727726  0.16813569    -0.23820
C1205       C  0.54192033  0.25123651  0.20776028     0.19200
C1206       C  0.50631771  0.19929476  0.20536542     0.24230
C1207       C  0.48220989  0.17390472  0.16364372    -0.23760
C1208       C  0.49970821  0.20146972  0.12424656     0.19130
F1209       F  0.47863295  0.18083268  0.08299914    -0.13720
F1210       F  0.56065480  0.27268663  0.08734439    -0.16080
F1211       F  0.49850678  0.17324296  0.24327418    -0.16090
F1212       F  0.56143249  0.27540099  0.24867425    -0.13720
C1213       C  0.83213359  0.01929900  0.21620289     0.24290
C1214       C  0.85235919  0.05090784  0.17982878    -0.23820
C1215       C  0.82143625  0.53997493  0.14044083     0.19200
C1216       C  0.77263824  0.49763020  0.13705159     0.24230
C1217       C  0.75106573  0.46871867  0.17483031    -0.23760
C1218       C  0.78211563  0.47981710  0.21410938     0.19130
F1219       F  0.76401142  0.45173923  0.25069796    -0.13720
F1220       F  0.86057779  0.02764137  0.25460741    -0.16080
F1221       F  0.74747899  0.48409318  0.09632446    -0.16090
F1222       F  0.83698906  0.57225122  0.10642004    -0.13720
C1223       C  0.47423058  0.34311079  0.12934539     0.24290
C1224       C  0.45569280  0.35286757  0.16909852    -0.23820
C1225       C  0.48869767  0.37193903  0.20783523     0.19200
C1226       C  0.53568680  0.37583291  0.20820238     0.24230
C1227       C  0.55575845  0.36984918  0.16813524    -0.23760
C1228       C  0.52391310  0.35277529  0.12864358     0.19130
F1229       F  0.53974859  0.34224992  0.08983096    -0.13720
F1230       F  0.94369163  0.32187972  0.09175220    -0.16080
F1231       F  0.55910046  0.38036340  0.24873309    -0.16090
F1232       F  0.47545371  0.38629190  0.24621100    -0.13720
C1233       C  0.76159831  0.36586947  0.12522151     0.24290
C1234       C  0.74663321  0.37173859  0.16810589    -0.23820
C1235       C  0.77046835  0.36466695  0.20602948     0.19200
C1236       C  0.81200555  0.35809644  0.20095244     0.24230
C1237       C  0.82507544  0.34898539  0.15760311    -0.23760
C1238       C  0.79556641  0.34895987  0.12027273     0.19130
F1239       F  0.79974068  0.33284183  0.07837926    -0.13720
F1240       F  0.74073560  0.37340514  0.08768724    -0.16080
F1241       F  0.84041441  0.36363488  0.23840908    -0.16090
F1242       F  0.75413556  0.36472719  0.24811058    -0.13720
Zr1243     Zr  0.82499947  0.68333901  0.42388789     2.17510
O1244       O  0.85223607  0.72414576  0.49959141    -0.50640
O1245       O  0.79290974  0.60346213  0.46279108    -0.73840
O1246       O  0.76470203  0.69811504  0.45944713    -0.80630
O1247       O  0.95268344  0.71092009  0.40867629    -0.82370
O1248       O  0.74231276  0.73548991  0.40722448    -0.78000
O1249       O  0.90389175  0.71573069  0.46223832    -0.89630
O1250       O  0.74562907  0.53807327  0.41258666    -0.75590
O1251       O  0.74846319  0.63363881  0.38155070    -0.85090
O1252       O  0.84060167  0.62591156  0.38262604    -0.84770
O1253       O  0.81928305  0.74310616  0.37712008    -0.71530
O1254       O  0.89277191  0.73393180  0.37640160    -0.83670
Zr1255     Zr  0.81892932  0.67797486  0.24410496     2.26420
Zr1256     Zr  0.74048430  0.69193408  0.33431609     2.06270
Zr1257     Zr  0.90763418  0.67608034  0.33464684     2.10050
Zr1258     Zr  0.76421156  0.57576770  0.33991739     1.78760
O1259       O  0.99365312  0.73066617  0.31428128    -0.92470
O1260       O  0.67345264  0.52247926  0.33973059    -0.40280
O1261       O  0.83130612  0.62358926  0.29201011    -0.76910
O1262       O  0.75262416  0.63046557  0.29368902    -0.95600
O1263       O  0.80663161  0.73886607  0.28383720    -0.88900
O1264       O  0.89706709  0.72998317  0.28388533    -0.91740
C1265       C  0.76424072  0.55600518  0.45246343     1.02010
C1266       C  0.94524812  0.72209500  0.44912398     1.14940
C1267       C  0.75344842  0.73080506  0.44851413     1.05720
O1268       O  0.65470384  0.64106063  0.35680799    -0.93900
O1269       O  0.69128776  0.65527422  0.26103859    -0.89640
O1270       O  0.74434229  0.66354413  0.20562621    -0.82790
C1271       C  0.70084920  0.64887284  0.21966191     1.12360
O1272       O  0.94123314  0.87807122  0.34136092    -0.95870
Zr1273     Zr  0.88350785  0.78818359  0.32579362     1.88940
O1274       O  0.85434234  0.75106519  0.19770891    -0.72520
O1275       O  0.71836304  0.75346213  0.31073634    -0.51780
O1276       O  0.85363928  0.84320798  0.35328790    -0.96460
O1277       O  0.97379775  0.82526084  0.33703416    -0.53680
O1278       O  0.88668328  0.81589706  0.24981531    -0.73040
C1279       C  0.87683682  0.79823570  0.20890956     0.99300
O1280       O  0.77838316  0.61645701  0.18061889    -0.61860
O1281       O  0.93262304  0.61542065  0.35399043    -0.56660
O1282       O  0.87683097  0.66004135  0.20751342    -0.93350
O1283       O  0.90528441  0.63137553  0.26372151    -0.91770
O1284       O  0.79994305  0.52170314  0.33136659    -0.92130
O1285       O  0.73126169  0.51968954  0.27294608    -0.90910
C1286       C  0.89547232  0.63416559  0.22173892     1.18150
H1287       H  0.84926858  0.60633662  0.40166999     0.34090
H1288       H  0.72360455  0.60532543  0.27623221     0.44940
H1289       H  0.92434156  0.74622237  0.26379216     0.38470
H1290       H  0.82381174  0.77057962  0.39698593     0.34950
H1291       H  0.66718140  0.48871272  0.34718210     0.26740
H1292       H  0.68420282  0.74071060  0.32142610     0.32670
H1293       H  0.83292306  0.84382461  0.32766368     0.38580
H1294       H  0.77200958  0.48700967  0.33525183     0.33040
H1295       H  0.96898435  0.63280284  0.34929892     0.31920
H1296       H  0.01424702  0.72485789  0.33655388     0.33600
H1297       H  0.98633750  0.82946105  0.30611220     0.32570
H1298       H  0.71440915  0.48534617  0.28441247     0.36570
H1299       H  0.80155679  0.62837462  0.15549780     0.29300
H1300       H  0.82499406  0.70370453  0.51989918     0.33530
H1301       H  0.93604596  0.89530892  0.31593519     0.36380
H1302       H  0.92994225  0.61313604  0.38717847     0.29000
H1303       H  0.77757985  0.58566467  0.19047059     0.41870
H1304       H  0.64403477  0.60647566  0.34494911     0.31920
H1305       H  0.66350582  0.53459061  0.36668339     0.39540
H1306       H  0.97883209  0.79838929  0.34873111     0.31390
H1307       H  0.73978835  0.78408434  0.33033796     0.31450
H1308       H  0.85298048  0.75656892  0.49799225     0.31720
C1309       C  0.69954645  0.87468416  0.17157398     0.02980
C1310       C  0.70017499  0.92132972  0.17157000     0.02980
C1311       C  0.65317995  0.92121156  0.17089144     0.02980
C1312       C  0.60640330  0.87351121  0.16932398     0.02980
C1313       C  0.60738895  0.82785534  0.16999056     0.02980
C1314       C  0.65346245  0.82893652  0.17096808     0.02980
C1315       C  0.66004370  0.61596482  0.18610861     0.01260
C1316       C  0.64217698  0.63672674  0.15635448     0.01260
C1317       C  0.87549390  0.85379600  0.14850875     0.01260
C1318       C  0.90046304  0.83539548  0.17353702     0.01260
C1319       C  0.90003099  0.60102254  0.18766168     0.01260
C1320       C  0.94019606  0.61895239  0.16050003     0.01260
C1321       C  0.98563186  0.74037230  0.48415558     0.01260
C1322       C  0.00197433  0.78363718  0.51156543     0.01260
C1323       C  0.71318742  0.98929446  0.50644476     0.01260
C1324       C  0.75820133  0.51889648  0.48674675     0.01260
C1325       C  0.53369128  0.50833276  0.50063690     0.02980
C1326       C  0.98578079  0.96325297  0.49806491     0.02980
C1327       C  0.94058412  0.96438287  0.49791545     0.02980
C1328       C  0.94295899  0.51161789  0.50103328     0.02980
C1329       C  0.99050975  0.55699507  0.50363363     0.02980
C1330       C  0.53572619  0.55530826  0.50436188     0.02980
C1331       C  0.75658046  0.76603981  0.48586454     0.01260
C1332       C  0.72407437  0.74868514  0.52022811     0.01260
Zr1333     Zr  0.98215419  0.50538348  0.91179099     2.17510
O1334       O  0.96052651  0.49993388  0.83093689    -0.50640
O1335       O  0.52195840  0.46652026  0.86808577    -0.73840
O1336       O  0.52967802  0.58561850  0.87742498    -0.80630
O1337       O  0.85892180  0.89402820  0.92329179    -0.82370
O1338       O  0.59053411  0.63685408  0.92979127    -0.78000
O1339       O  0.89631391  0.96624434  0.88649538    -0.89630
O1340       O  0.55347983  0.93349677  0.91700865    -0.75590
O1341       O  0.55794110  0.52791975  0.95295603    -0.85090
O1342       O  0.96401766  0.93201689  0.95170196    -0.84770
O1343       O  0.49632972  0.57554525  0.96131431    -0.71530
O1344       O  0.91390361  0.48673032  0.95960089    -0.83670
Zr1345     Zr  0.48980860  0.50889720  0.09071152     2.26420
Zr1346     Zr  0.57193625  0.59726072  0.00300780     2.06270
Zr1347     Zr  0.89731088  0.91529087  0.00049911     2.10050
Zr1348     Zr  0.53882378  0.95451192  0.99296714     1.78760
O1349       O  0.81463294  0.90174455  0.01510345    -0.92470
O1350       O  0.62864120  0.49032834  0.00568635    -0.40280
O1351       O  0.97290038  0.93733782  0.04238035    -0.76910
O1352       O  0.55665217  0.52475704  0.04239866    -0.95600
O1353       O  0.50481844  0.58068244  0.05081135    -0.88900
O1354       O  0.91254177  0.48409987  0.05119690    -0.91740
C1355       C  0.54602690  0.94367056  0.87688409     1.02010
C1356       C  0.86375313  0.91975390  0.88818153     1.14940
C1357       C  0.56942111  0.62688478  0.88977950     1.05720
O1358       O  0.65933455  0.62339316  0.99311370    -0.93900
O1359       O  0.61158084  0.62195392  0.07953316    -0.89640
O1360       O  0.56573972  0.56628948  0.13170147    -0.82790
C1361       C  0.60441209  0.60607952  0.12001795     1.12360
O1362       O  0.88485835  0.56373257  0.94429224    -0.95870
Zr1363     Zr  0.92829564  0.55509171  0.00957257     1.88940
O1364       O  0.96373963  0.56031182  0.13386266    -0.72520
O1365       O  0.59429863  0.68457593  0.01832213    -0.51780
O1366       O  0.95434679  0.64299165  0.99886084    -0.96460
O1367       O  0.83848749  0.51605004  0.01965820    -0.53680
O1368       O  0.92571056  0.58675738  0.08463313    -0.73040
C1369       C  0.94243370  0.58561259  0.12426830     0.99300
O1370       O  0.52484937  0.99016296  0.15698070    -0.61860
O1371       O  0.85886415  0.82413110  0.98930528    -0.56660
O1372       O  0.92956193  0.93614410  0.12778160    -0.93350
O1373       O  0.89249883  0.87474291  0.07178803    -0.91770
O1374       O  0.50144065  0.86317079  0.98925970    -0.92130
O1375       O  0.57106250  0.92823404  0.05486036    -0.90910
C1376       C  0.90205652  0.89023388  0.11375355     1.18150
H1377       H  0.95551862  0.90261341  0.93260180     0.34090
H1378       H  0.58608775  0.53184966  0.06026322     0.44940
H1379       H  0.88616625  0.97473491  0.07211155     0.38470
H1380       H  0.49937064  0.60354789  0.94522398     0.34950
H1381       H  0.63626011  0.96478650  0.99343384     0.26740
H1382       H  0.62674918  0.70487282  0.00412206     0.32670
H1383       H  0.92598561  0.64662933  0.00862323     0.38580
H1384       H  0.52912498  0.85745605  0.98164566     0.33040
H1385       H  0.83243776  0.81357817  0.96508488     0.31920
H1386       H  0.79156462  0.87313453  0.99409420     0.33600
H1387       H  0.83239595  0.54447166  0.02386595     0.32570
H1388       H  0.56491896  0.94341975  0.08212994     0.36570
H1389       H  0.50209089  0.98417821  0.18196167     0.29300
H1390       H  0.99211806  0.51202907  0.81517002     0.33530
H1391       H  0.86781026  0.58135022  0.95583349     0.36380
H1392       H  0.88498923  0.81942240  0.97539464     0.29000
H1393       H  0.52179052  0.95715475  0.14945556     0.41870
H1394       H  0.65977966  0.60937351  0.96266117     0.31920
H1395       H  0.64461595  0.51909935  0.98580998     0.39540
H1396       H  0.83241493  0.50088852  0.04947502     0.31390
H1397       H  0.57010532  0.68881272  0.99935917     0.31450
H1398       H  0.95153951  0.52616126  0.82633134     0.31720
Zr1399     Zr  0.66005783  0.84087788  0.75610947     2.17510
O1400       O  0.68218106  0.86663184  0.83633588    -0.50640
O1401       O  0.61878813  0.76361372  0.79892429    -0.73840
O1402       O  0.61259523  0.87532662  0.78999865    -0.80630
O1403       O  0.79674055  0.87494605  0.73954643    -0.82370
O1404       O  0.55286749  0.86138000  0.73652870    -0.78000
O1405       O  0.74331386  0.88249001  0.78603993    -0.89630
O1406       O  0.59168618  0.69597371  0.75008038    -0.75590
O1407       O  0.58496799  0.78305765  0.71513614    -0.85090
O1408       O  0.68196440  0.78616869  0.71696612    -0.84770
O1409       O  0.64632920  0.89345997  0.70646966    -0.71530
O1410       O  0.72740444  0.89074483  0.70824976    -0.83670
Zr1411     Zr  0.65742989  0.83033890  0.57622665     2.26420
Zr1412     Zr  0.57101122  0.83408404  0.66386107     2.06270
Zr1413     Zr  0.74818545  0.83579836  0.66717442     2.10050
Zr1414     Zr  0.60683557  0.72922242  0.67525962     1.78760
O1415       O  0.82945278  0.89251094  0.63728977    -0.92470
O1416       O  0.51593298  0.67919360  0.66512738    -0.40280
O1417       O  0.67231370  0.77866080  0.62633596    -0.76910
O1418       O  0.59118506  0.77816263  0.62467994    -0.95600
O1419       O  0.63761252  0.88605925  0.61502614    -0.88900
O1420       O  0.73356179  0.88737433  0.61645576    -0.91740
C1421       C  0.59700943  0.71577503  0.79000948     1.02010
C1422       C  0.78607757  0.88943838  0.77695305     1.14940
C1423       C  0.57355813  0.87612804  0.77669803     1.05720
O1424       O  0.48412108  0.77244845  0.67699906    -0.93900
O1425       O  0.52487520  0.79838720  0.59022607    -0.89640
O1426       O  0.57893373  0.80041850  0.53826966    -0.82790
C1427       C  0.53639953  0.79208835  0.54968133     1.12360
O1428       O  0.76325990  0.02715494  0.68907918    -0.95870
Zr1429     Zr  0.71298917  0.94119736  0.65747619     1.88940
O1430       O  0.68349014  0.90538670  0.53171150    -0.72520
O1431       O  0.54453437  0.89452975  0.64853711    -0.51780
O1432       O  0.67337675  0.99109226  0.67102978    -0.96460
O1433       O  0.80334574  0.98341276  0.67122587    -0.53680
O1434       O  0.72135146  0.97189550  0.58219186    -0.73040
C1435       C  0.70689062  0.95306816  0.54186766     0.99300
O1436       O  0.64226085  0.78063537  0.50527715    -0.61860
O1437       O  0.78631895  0.78562464  0.68463635    -0.56660
O1438       O  0.72127250  0.82028232  0.54392849    -0.93350
O1439       O  0.73636937  0.78078266  0.59870819    -0.91770
O1440       O  0.63709370  0.67023116  0.67815822    -0.92130
O1441       O  0.57057835  0.66885517  0.61169721    -0.90910
C1442       C  0.72845445  0.78546746  0.55654032     1.18150
H1443       H  0.69138255  0.76809854  0.73713022     0.34090
H1444       H  0.56294198  0.75190030  0.60715733     0.44940
H1445       H  0.76060823  0.90555225  0.59653442     0.38470
H1446       H  0.64291208  0.91898925  0.72268247     0.34950
H1447       H  0.50621842  0.64430536  0.67227968     0.26740
H1448       H  0.50884035  0.87721485  0.65596854     0.32670
H1449       H  0.64757695  0.98008748  0.64615806     0.38580
H1450       H  0.60695650  0.63716670  0.68282304     0.33040
H1451       H  0.80433259  0.79917694  0.71436175     0.31920
H1452       H  0.85360384  0.88872075  0.65674978     0.33600
H1453       H  0.81745418  0.99290279  0.64112606     0.32570
H1454       H  0.58137360  0.68955378  0.58480996     0.36570
H1455       H  0.61184452  0.74742588  0.50882850     0.29300
H1456       H  0.65104736  0.84681045  0.85259555     0.33530
H1457       H  0.77164090  0.04876031  0.66279684     0.36380
H1458       H  0.75768653  0.75193775  0.69044594     0.29000
H1459       H  0.63343386  0.79689484  0.48132047     0.41870
H1460       H  0.48434948  0.76306945  0.70865880     0.31920
H1461       H  0.50282080  0.69152558  0.68937308     0.39540
H1462       H  0.81003476  0.95639133  0.67917053     0.31390
H1463       H  0.56177975  0.92188937  0.67232635     0.31450
H1464       H  0.68976040  0.90198089  0.83980330     0.31720
C1465       C  0.83484624  0.89303469  0.84543056     0.01260
C1466       C  0.82318903  0.91755507  0.81386383     0.01260
C1467       C  0.77528135  0.65166166  0.83108427     0.02980
C1468       C  0.82150397  0.69777222  0.82916000     0.02980
C1469       C  0.86777147  0.69807397  0.82740558     0.02980
C1470       C  0.86818065  0.65223053  0.82932752     0.02980
C1471       C  0.82157847  0.60554504  0.82880316     0.02980
C1472       C  0.77523989  0.60538515  0.82919268     0.02980
C1473       C  0.57070784  0.68081672  0.82706782     0.01260
C1474       C  0.59493184  0.66345253  0.85450496     0.01260
C1475       C  0.57220974  0.93366929  0.83916642     0.01110
C1476       C  0.54809219  0.89058606  0.81091766     0.01260
C1477       C  0.94025352  0.65337589  0.78985363     0.24290
C1478       C  0.91772486  0.65357444  0.83024765    -0.23820
C1479       C  0.94446757  0.65848133  0.87120915     0.19200
C1480       C  0.99443402  0.66869390  0.87127740     0.24230
C1481       C  0.01582700  0.66570146  0.83051674    -0.23760
C1482       C  0.98540180  0.65341915  0.79053449     0.19130
F1483       F  0.99864435  0.63991850  0.75189087    -0.13720
F1484       F  0.91925704  0.65424661  0.74943960    -0.16080
F1485       F  0.02232801  0.68411415  0.91070835    -0.16090
F1486       F  0.92375098  0.65778452  0.91114010    -0.13720
C1487       C  0.64813830  0.64187695  0.80693045     0.24290
C1488       C  0.64452220  0.66853586  0.84471775    -0.23820
C1489       C  0.68318478  0.68754685  0.87875893     0.19200
C1490       C  0.72298802  0.67825551  0.87593285     0.24230
C1491       C  0.72743567  0.65281524  0.83744239    -0.23760
C1492       C  0.68967470  0.63567232  0.80259138     0.19130
F1493       F  0.69513292  0.61740629  0.76230975    -0.13720
F1494       F  0.61050082  0.62023137  0.77462419    -0.16080
F1495       F  0.75840117  0.69579375  0.91026741    -0.16090
F1496       F  0.68173142  0.71414278  0.91557524    -0.13720
C1497       C  0.65840043  0.49669172  0.87399617     0.24290
C1498       C  0.62670443  0.47394790  0.83483386    -0.23820
C1499       C  0.64683377  0.49352859  0.79292773     0.19200
C1500       C  0.69717374  0.53227589  0.79081329     0.24230
C1501       C  0.72618776  0.55725812  0.83054018    -0.23760
C1502       C  0.70530123  0.54008414  0.87212729     0.19130
F1503       F  0.72995994  0.56598929  0.91126856    -0.13720
F1504       F  0.64490675  0.47668754  0.91455145    -0.16080
F1505       F  0.71624120  0.54875295  0.75009827    -0.16090
F1506       F  0.61723396  0.97777917  0.75448021    -0.13720
C1507       C  0.92074735  0.77653832  0.78525884     0.24290
C1508       C  0.91577333  0.74720207  0.82249493    -0.23820
C1509       C  0.95255238  0.76897232  0.85824241     0.19200
C1510       C  0.99377336  0.81747796  0.85602188     0.24230
C1511       C  0.99809374  0.84698218  0.81941473    -0.23760
C1512       C  0.96045473  0.82641290  0.78450761     0.19130
F1513       F  0.96334349  0.85410389  0.74868785    -0.13720
F1514       F  0.88589915  0.75741524  0.75041140    -0.16080
F1515       F  0.03052216  0.83499909  0.88913174    -0.16090
F1516       F  0.94596088  0.74607813  0.89778718    -0.13720
C1517       C  0.80991318  0.48064705  0.86025363     0.24290
C1518       C  0.82952859  0.46890398  0.82230275    -0.23820
C1519       C  0.84483293  0.50175648  0.78655287     0.19200
C1520       C  0.83808882  0.54329402  0.78741388     0.24230
C1521       C  0.82196580  0.55707636  0.82635527    -0.23760
C1522       C  0.80841676  0.52543002  0.86301522     0.19130
F1523       F  0.79311842  0.53733021  0.90143335    -0.13720
F1524       F  0.79028107  0.94802469  0.89385580    -0.16080
F1525       F  0.84528971  0.56879783  0.74931662    -0.16090
F1526       F  0.86415831  0.49196043  0.74960564    -0.13720
C1527       C  0.86690672  0.83422131  0.85451701     0.24290
C1528       C  0.82936663  0.84205994  0.83627529    -0.23820
C1529       C  0.78795229  0.79992217  0.81375271     0.19200
C1530       C  0.79005816  0.75619518  0.80456603     0.24230
C1531       C  0.82224393  0.74680012  0.83156772    -0.23760
C1532       C  0.85634823  0.78585289  0.86146380     0.19130
F1533       F  0.88020451  0.77774592  0.89609594    -0.13720
F1534       F  0.91333415  0.87307227  0.86573684    -0.16080
F1535       F  0.76001188  0.72326206  0.77084717    -0.16090
F1536       F  0.74438774  0.79827311  0.80428608    -0.13720
C1537       C  0.61037684  0.62337644  0.55064213     0.24290
C1538       C  0.58540084  0.60312605  0.50837244    -0.23820
C1539       C  0.60704853  0.62983590  0.47003140     0.19200
C1540       C  0.64793996  0.67890114  0.47465648     0.24230
C1541       C  0.67636091  0.69770665  0.51612980    -0.23760
C1542       C  0.65705502  0.66824249  0.55405098     0.19130
F1543       F  0.68249386  0.68304627  0.59469079    -0.13720
F1544       F  0.58900616  0.60034763  0.58890745    -0.16080
F1545       F  0.65704437  0.70883196  0.43930473    -0.16090
F1546       F  0.58784872  0.60902567  0.42809680    -0.13720
C1547       C  0.86008423  0.89761663  0.45622443     0.24290
C1548       C  0.89107886  0.91544243  0.49605534    -0.23820
C1549       C  0.87768889  0.88352042  0.53250588     0.19200
C1550       C  0.83561512  0.83472739  0.52864242     0.24230
C1551       C  0.80296741  0.81796172  0.48965124    -0.23760
C1552       C  0.81550513  0.85063729  0.45387958     0.19130
F1553       F  0.78474086  0.83700205  0.41630247    -0.13720
F1554       F  0.87447144  0.92396806  0.41833640    -0.16080
F1555       F  0.82780820  0.80328455  0.56260763    -0.16090
F1556       F  0.90695324  0.89873978  0.57121085    -0.13720
C1557       C  0.82862710  0.51971156  0.53510641     0.24290
C1558       C  0.80324568  0.51252539  0.49288310    -0.23820
C1559       C  0.82572874  0.00651764  0.45419472     0.19200
C1560       C  0.87297135  0.01137303  0.45695964     0.24230
C1561       C  0.89552090  0.51332530  0.49902330    -0.23760
C1562       C  0.87207949  0.51599284  0.53835669     0.19130
F1563       F  0.89205374  0.51662352  0.57979250    -0.13720
F1564       F  0.81388654  0.53401869  0.57256233    -0.16080
F1565       F  0.89672717  0.01413273  0.41830245    -0.16090
F1566       F  0.80191542  0.99605324  0.41321456    -0.13720
C1567       C  0.63734454  0.98219217  0.46296718     0.24290
C1568       C  0.67036513  0.99908244  0.50152943    -0.23820
C1569       C  0.65834487  0.51931931  0.53904330     0.19200
C1570       C  0.61361587  0.51992346  0.53926618     0.24230
C1571       C  0.58173783  0.50618204  0.50013840    -0.23760
C1572       C  0.59445378  0.98727383  0.46171188     0.19130
F1573       F  0.56418473  0.97169735  0.42363976    -0.13720
F1574       F  0.64533782  0.95870937  0.42740745    -0.16080
F1575       F  0.59951807  0.52921351  0.57950072    -0.16090
F1576       F  0.68914101  0.53680842  0.57676676    -0.13720
C1577       C  0.51323364  0.68023430  0.45914773     0.24290
C1578       C  0.99768196  0.70017285  0.49437582    -0.23820
C1579       C  0.98213665  0.67355669  0.53436013     0.19200
C1580       C  0.98259750  0.62853450  0.53860799     0.24230
C1581       C  0.99323945  0.60660064  0.50141804    -0.23760
C1582       C  0.50627992  0.63199037  0.46110306     0.19130
F1583       F  0.50918945  0.60873897  0.42264580    -0.13720
F1584       F  0.53194172  0.70602958  0.42131868    -0.16080
F1585       F  0.97083516  0.60549951  0.57840972    -0.16090
F1586       F  0.96387355  0.68940331  0.56824242    -0.13720
C1587       C  0.97149191  0.83636376  0.46662313     0.24290
C1588       C  0.99573338  0.82943430  0.50459713    -0.23820
C1589       C  0.51833680  0.87098044  0.53741572     0.19200
C1590       C  0.50543803  0.90747225  0.53902156     0.24230
C1591       C  0.98363039  0.91462519  0.50105499    -0.23760
C1592       C  0.96614402  0.87882980  0.46491485     0.19130
F1593       F  0.94561669  0.88613534  0.42732436    -0.13720
F1594       F  0.95975825  0.80784070  0.42816478    -0.16080
F1595       F  0.52063729  0.94042143  0.57552563    -0.16090
F1596       F  0.56028234  0.88340151  0.56273901    -0.13720
C1597       C  0.64129084  0.70568793  0.20338823     0.24290
C1598       C  0.65293993  0.68941114  0.16286209    -0.23820
C1599       C  0.66677145  0.72075387  0.12595099     0.19200
C1600       C  0.66169819  0.76303428  0.12746883     0.24230
C1601       C  0.65358128  0.78086353  0.16862144    -0.23760
C1602       C  0.64628817  0.75326134  0.20728481     0.19130
F1603       F  0.64184441  0.77130947  0.24820733    -0.13720
F1604       F  0.62207547  0.67463593  0.23810207    -0.16080
F1605       F  0.66424128  0.78623593  0.08864193    -0.16090
F1606       F  0.68399308  0.71002887  0.08798141    -0.13720
C1607       C  0.66074128  0.99924797  0.13521892     0.24290
C1608       C  0.65236460  0.97009968  0.17330850    -0.23820
C1609       C  0.64153448  0.98731436  0.21372786     0.19200
C1610       C  0.64021254  0.03227788  0.21642655     0.24230
C1611       C  0.65181090  0.56314737  0.17929196    -0.23760
C1612       C  0.66232966  0.54592416  0.13847642     0.19130
F1613       F  0.67647685  0.57519140  0.10220162    -0.13720
F1614       F  0.66693185  0.98240730  0.09450457    -0.16080
F1615       F  0.62868439  0.04636475  0.25614069    -0.16090
F1616       F  0.63402941  0.96167307  0.25168058    -0.13720
C1617       C  0.54000128  0.75105976  0.12638998     0.24290
C1618       C  0.56027245  0.77727652  0.16813685    -0.23820
C1619       C  0.54192026  0.75123662  0.20776161     0.19200
C1620       C  0.50631770  0.69929480  0.20536722     0.24230
C1621       C  0.48221179  0.67390342  0.16364534    -0.23760
C1622       C  0.49971337  0.70146701  0.12424771     0.19130
F1623       F  0.47864341  0.68082769  0.08299945    -0.13720
F1624       F  0.56066034  0.77268409  0.08734594    -0.16080
F1625       F  0.49850593  0.67324408  0.24327675    -0.16090
F1626       F  0.56143119  0.77540195  0.24867552    -0.13720
C1627       C  0.83213302  0.51929851  0.21620270     0.24290
C1628       C  0.85235927  0.55090715  0.17982845    -0.23820
C1629       C  0.82143595  0.03997563  0.14044135     0.19200
C1630       C  0.77263799  0.99763085  0.13705231     0.24230
C1631       C  0.75106601  0.96871901  0.17483101    -0.23760
C1632       C  0.78211638  0.97981722  0.21410971     0.19130
F1633       F  0.76401277  0.95173860  0.25069795    -0.13720
F1634       F  0.86057656  0.52764080  0.25460768    -0.16080
F1635       F  0.74747839  0.98409396  0.09632535    -0.16090
F1636       F  0.83698874  0.07225184  0.10642049    -0.13720
C1637       C  0.47423035  0.84310770  0.12934657     0.24290
C1638       C  0.45569267  0.85286561  0.16909920    -0.23820
C1639       C  0.48869772  0.87193810  0.20783591     0.19200
C1640       C  0.53568703  0.87583241  0.20820333     0.24230
C1641       C  0.55575858  0.86984773  0.16813650    -0.23760
C1642       C  0.52391279  0.85277194  0.12864510     0.19130
F1643       F  0.53974786  0.84224453  0.08983316    -0.13720
F1644       F  0.94369148  0.82187772  0.09175536    -0.16080
F1645       F  0.55910077  0.88036379  0.24873422    -0.16090
F1646       F  0.47545389  0.88629140  0.24621158    -0.13720
C1647       C  0.76160048  0.86587132  0.12522295     0.24290
C1648       C  0.74663458  0.87173927  0.16810727    -0.23820
C1649       C  0.77046819  0.86466525  0.20603073     0.19200
C1650       C  0.81200447  0.85809306  0.20095377     0.24230
C1651       C  0.82507537  0.84898364  0.15760433    -0.23760
C1652       C  0.79556761  0.84896049  0.12027389     0.19130
F1653       F  0.79974188  0.83284321  0.07838009    -0.13720
F1654       F  0.74073878  0.87340855  0.08768885    -0.16080
F1655       F  0.84041116  0.86362753  0.23841083    -0.16090
F1656       F  0.75413463  0.86472458  0.24811165    -0.13720
loop_ 
_geom_bond_atom_site_label_1 
_geom_bond_atom_site_label_2 
_geom_bond_distance 
_geom_bond_site_symmetry_2 
_ccdc_geom_bond_type 
Zr1           O2   2.443       .  S
Zr1           O3   2.474       .  S
Zr1           O4   2.397       .  S
Zr1           O7   2.367       .  S
Zr1           O9   2.368       .  S
Zr1          O10   2.369       .  S
Zr1          O11   2.412       .  S
Zr1          O12   2.405       .  S
O2           H58   0.990       .  S
O2           H66   0.990       .  S
O3           C23   1.289       .  A
O4           C25   1.270       .  A
O5          Zr15   2.468       .  S
O5           C24   1.293       .  A
O6          Zr14   2.488       .  S
O6           C25   1.295       .  A
O7           C24   1.269       .  A
O8          Zr16   2.418       .  S
O8           C23   1.279       .  A
O9          Zr14   2.415       .  S
O9          Zr16   2.388       .  S
O10         Zr15   2.399       .  S
O10         Zr16   2.372       .  S
O10          H45   0.966       .  S
O11         Zr14   2.427       .  S
O11         Zr31   2.383       .  S
O11          H48   0.962       .  S
O12         Zr15   2.373       .  S
O12         Zr31   2.397       .  S
Zr13         O38   2.439       .  S
Zr13         O32   2.433       .  S
Zr13         O40   2.402       .  S
Zr13         O28   2.378       .  S
Zr13         O19   2.396       .  S
Zr13         O20   2.399       .  S
Zr13         O21   2.377       .  S
Zr13         O22   2.375       .  S
Zr14         O33   2.435       .  S
Zr14         O26   2.431       .  S
Zr14         O27   2.500       .  S
Zr14         O20   2.402       .  S
Zr14         O21   2.411       .  S
Zr15         O17   2.431       .  S
Zr15         O39   2.436       .  S
Zr15         O41   2.452       .  S
Zr15         O19   2.380       .  S
Zr15         O22   2.410       .  S
Zr16         O42   2.434       .  S
Zr16         O43   2.419       .  S
Zr16         O18   2.438       .  S
Zr16         O19   2.383       .  S
Zr16         O20   2.362       .  S
O17          H54   0.989       .  S
O18          H49   0.990   1_545  S
O18          H63   0.990       .  S
O20          H46   0.961       .  S
O21         Zr31   2.369       .  S
O22         Zr31   2.361       .  S
O22          H47   0.966       .  S
C23          C82   1.495       .  S
C24          C79   1.466       .  S
C25          C89   1.490       .  S
O26          H62   0.990       .  S
O27          C29   1.299       .  A
O28          C29   1.273       .  A
C29          C73   1.481       .  S
O30         Zr31   2.437       .  S
O30          H59   0.990       .  S
Zr31         O34   2.436       .  S
Zr31         O35   2.441       .  S
Zr31         O36   2.417       .  S
O32          C37   1.280       .  A
O33          H50   0.990       .  S
O33          H65   0.990       .  S
O34          H51   0.990       .  S
O35          H55   0.990       .  S
O35          H64   0.988       .  S
O36          C37   1.276       .  A
C37          C76   1.485       .  S
O38          H57   0.990       .  S
O38          H61   0.989       .  S
O39          H53   0.990       .  S
O39          H60   0.990       .  S
O40          C44   1.275       .  A
O41          C44   1.288       .  A
O42          H52   0.990   1_545  S
O43          H56   0.989   1_545  S
C44          C77   1.472       .  S
C67          C68   1.427       .  A
C67          C72   1.409       .  A
C67         C406   1.515       .  S
C68          C69   1.457       .  A
C68         C389   1.510       .  S
C69          C70   1.449       .  A
C69         C366   1.518       .  S
C70          C71   1.422       .  A
C70         C399   1.517       .  S
C71          C72   1.413       .  A
C71         C376   1.500       .  S
C72         C359   1.482       .  S
C73         C369   1.519       .  S
C73          C74   1.365       .  D
C74         C119   1.475       .  S
C74         C356   1.486       .  S
C75         C134   1.474       .  S
C75         C409   1.527       .  S
C75          C76   1.384       .  D
C76        C1224   1.525       .  S
C77         C386   1.507       .  S
C77          C78   1.372       .  D
C78         C127   1.488       .  S
C78        C1207   1.523       .  S
C79         C336   1.501       .  S
C79          C80   1.385       .  D
C80         C346   1.537       .  S
C80        C1013   1.458       .  S
C81         C193   1.498       .  S
C81         C326   1.510       .  S
C81         C496   1.380       .  D
C82         C316   1.515       .  S
C82         C495   1.380   1_545  D
C83          C88   1.416       .  A
C83        C1326   1.428   1_445  A
C83         C329   1.526       .  S
C84          C85   1.421       .  A
C84        C1325   1.428       .  A
C84         C349   1.470       .  S
C85         C500   1.418       .  A
C85         C306   1.510       .  S
C86          C87   1.426       .  A
C86         C499   1.418   1_545  A
C86         C319   1.500       .  S
C87         C916   1.430       .  A
C87         C339   1.490       .  S
C88         C915   1.430   1_455  A
C88         C296   1.496       .  S
C89         C309   1.513       .  S
C89          C90   1.369       .  D
C90         C200   1.489       .  S
C90         C299   1.515       .  S
Zr91         O92   2.448   1_545  S
Zr91        O921   2.471   1_545  S
Zr91        O922   2.419       .  S
Zr91        O511   2.389   1_545  S
Zr91        O102   2.404   1_545  S
Zr91        O927   2.378       .  S
Zr91        O514   2.393   1_545  S
Zr91        O929   2.411       .  S
O92         H148   0.990   1_565  S
O92         H156   0.991   1_565  S
O93        Zr919   2.471   1_465  S
O93         C527   1.287       .  A
O94        Zr919   2.419   1_455  S
O94         C115   1.277       .  A
O95        Zr105   2.461   1_556  S
O95         C114   1.292       .  A
O96        Zr104   2.456   1_556  S
O96         C115   1.289       .  A
O97        Zr505   2.389       .  S
O97         C114   1.270       .  A
O98        Zr106   2.436       .  S
O98         C113   1.283       .  A
O99        Zr104   2.402   1_556  S
O99        Zr919   2.378   1_455  S
O99        Zr520   2.389   1_545  S
O100       Zr105   2.397   1_556  S
O100       Zr505   2.393       .  S
O100       Zr934   2.355       .  S
O100        H135   0.963       .  S
O101       Zr104   2.387   1_656  S
O101       Zr919   2.411       .  S
O101       Zr949   2.397   1_556  S
O101        H138   0.962       .  S
O102       Zr121   2.374   1_566  S
O102       Zr519   2.371   1_556  S
Zr103       O542   2.444   1_645  S
Zr103       O118   2.378   1_655  S
Zr103       O950   2.452       .  S
Zr103      O1372   2.393   1_545  S
Zr103       O110   2.397   1_655  S
Zr103       O111   2.376   1_655  S
Zr103      O1351   2.402   1_545  S
Zr103       O940   2.379   1_545  S
Zr104       O123   2.436       .  S
Zr104       O116   2.436   1_554  S
Zr104       O117   2.456       .  S
Zr104       O110   2.385       .  S
Zr104       O111   2.389       .  S
Zr105       O107   2.434       .  S
Zr105       O129   2.437   1_554  S
Zr105       O131   2.455       .  S
Zr105       O109   2.387       .  S
Zr105       O516   2.371   1_554  S
Zr105       O526   2.390       .  S
Zr106       O132   2.436       .  S
Zr106       O133   2.417   1_556  S
Zr106       O522   2.437   1_556  S
Zr106       O513   2.389       .  S
Zr106       O928   2.355   1_455  S
Zr106       O937   2.387   1_456  S
Zr106       O524   2.382   1_556  S
O107        H144   0.990   1_554  S
O108       Zr520   2.437   1_554  S
O108        H153   0.989   1_564  S
O108        H553   0.990   1_554  S
O109      Zr1345   2.402       .  S
O109       Zr934   2.387   1_554  S
O110       Zr520   2.382   1_544  S
O110        H136   0.964       .  S
O111       Zr949   2.379   1_455  S
O112       Zr121   2.378   1_565  S
O112       Zr931   2.379   1_565  S
O112       Zr519   2.390       .  S
O112        H551   0.966       .  S
C113        O507   1.287       .  A
C113        C233   1.509       .  S
C114        C223   1.488       .  S
C115        C232   1.482       .  S
O116        H152   0.990       .  S
O117        C119   1.290       .  A
O118        C119   1.272       .  A
O120       Zr121   2.428   1_556  S
O120        H149   0.989       .  S
Zr121       O124   2.435   1_554  S
Zr121       O125   2.443       .  S
Zr121       O126   2.417       .  S
Zr121       O929   2.397   1_554  S
Zr121       O939   2.379       .  S
O122       Zr931   2.452       .  S
O122        C127   1.286       .  A
O123        H140   0.990       .  S
O123        H155   0.990   1_554  S
O124        H141   0.990   1_556  S
O125        H145   0.990       .  S
O125        H154   0.989       .  S
O126        C127   1.280       .  A
O128       Zr517   2.444   1_455  S
O128        H147   0.990       .  S
O128        H151   0.989       .  S
O129        H143   0.990       .  S
O129        H150   0.990       .  S
O130      Zr1345   2.393       .  S
O130        C134   1.274       .  A
O131        C134   1.288       .  A
O132        H142   0.990       .  S
O133        H146   0.990       .  S
H137        O526   0.966       .  S
H139        O522   0.990   1_556  S
Zr157       O158   2.448       .  S
Zr157       O159   2.467       .  S
Zr157       O160   2.426       .  S
Zr157       O163   2.360       .  S
Zr157       O165   2.366       .  S
Zr157       O166   2.391       .  S
Zr157       O167   2.405       .  S
Zr157       O168   2.400       .  S
O158        H214   0.990       .  S
O158        H222   0.991       .  S
O159        C179   1.286       .  A
O160        C181   1.278       .  A
O161       Zr171   2.481       .  S
O161        C180   1.292       .  A
O162       Zr170   2.464       .  S
O162        C181   1.291       .  A
O163        C180   1.270       .  A
O164       Zr172   2.425       .  S
O164        C179   1.280       .  A
O165       Zr170   2.402       .  S
O165       Zr172   2.378       .  S
O166       Zr171   2.415       .  S
O166       Zr172   2.370       .  S
O166        H201   0.964       .  S
O167       Zr170   2.404       .  S
O167       Zr187   2.396       .  S
O167        H204   0.960       .  S
O168       Zr171   2.402       .  S
O168       Zr187   2.386       .  S
Zr169       O194   2.448       .  S
Zr169       O188   2.466       .  S
Zr169       O196   2.373       .  S
Zr169       O184   2.362       .  S
Zr169       O175   2.410       .  S
Zr169       O176   2.409       .  S
Zr169       O177   2.370       .  S
Zr169       O178   2.369       .  S
Zr170       O189   2.436       .  S
Zr170       O182   2.436   1_455  S
Zr170       O183   2.473       .  S
Zr170       O176   2.388       .  S
Zr170       O177   2.420       .  S
Zr171       O173   2.436       .  S
Zr171       O195   2.435       .  S
Zr171       O197   2.495       .  S
Zr171       O175   2.374       .  S
Zr171       O178   2.415       .  S
Zr172       O198   2.434       .  S
Zr172       O199   2.412       .  S
Zr172       O174   2.439       .  S
Zr172       O175   2.385       .  S
Zr172       O176   2.367       .  S
O173        H210   0.990       .  S
O174        H205   0.989       .  S
O174        H219   0.989       .  S
O176        H202   0.962       .  S
O177       Zr187   2.374       .  S
O178       Zr187   2.368       .  S
O178        H203   0.966       .  S
C179        C231   1.502       .  S
C180        C224   1.463       .  S
C181        C234   1.488       .  S
O182        H218   0.990       .  S
O183        C185   1.297       .  A
O184        C185   1.267       .  A
C185        C908   1.458       .  S
O186       Zr187   2.430       .  S
O186        H215   0.991       .  S
Zr187       O190   2.436       .  S
Zr187       O191   2.437       .  S
Zr187       O192   2.416       .  S
O188        C193   1.286       .  A
O189        H206   0.990       .  S
O189        H221   0.990       .  S
O190        H207   0.990       .  S
O191        H211   0.988       .  S
O191        H220   0.988       .  S
O192        C193   1.276       .  A
O194        H213   0.990       .  S
O194        H217   0.991       .  S
O195        H209   0.989       .  S
O195        H216   0.990       .  S
O196        C200   1.266       .  A
O197        C200   1.293       .  A
O198        H208   0.990       .  S
O199        H212   0.990       .  S
C223        C286   1.505       .  S
C223        C224   1.371       .  D
C224        C690   1.503       .  S
C225        C226   1.422       .  A
C225        C230   1.424       .  A
C225        C249   1.519       .  S
C226        C227   1.434       .  A
C226        C289   1.498       .  S
C227        C228   1.421       .  A
C227        C266   1.506       .  S
C228        C229   1.431       .  A
C228        C236   1.517       .  S
C229        C230   1.436       .  A
C229        C279   1.498       .  S
C230        C259   1.495       .  S
C231       C1067   1.529       .  S
C231        C232   1.385       .  D
C232        C246   1.503       .  S
C233        C670   1.520       .  S
C233        C234   1.383       .  D
C234       C1097   1.484   1_455  S
C235        C236   1.401       .  A
C235        C240   1.400       .  A
C235        F242   1.356       .  S
C236        C237   1.413       .  A
C237        C238   1.418       .  A
C237        F244   1.354       .  S
C238        C239   1.413       .  A
C238        F243   1.356       .  S
C239       C1059   1.529       .  S
C239        C240   1.411       .  A
C240        F241   1.347       .  S
C245        C246   1.406       .  A
C245        C250   1.404       .  A
C245        F252   1.357       .  S
C246        C247   1.411       .  A
C247        C248   1.406       .  A
C247        F254   1.358       .  S
C248        C249   1.411       .  A
C248        F253   1.358       .  S
C249        C250   1.413       .  A
C250        F251   1.353       .  S
C255        C256   1.414       .  A
C255        C260   1.394   1_565  A
C255        F262   1.344       .  S
C256        C647   1.520       .  S
C256        C257   1.412       .  A
C257        C258   1.410   1_565  A
C257        F678   1.356       .  S
C258        C259   1.406       .  A
C258        F263   1.352       .  S
C259        C260   1.395       .  A
C260        F261   1.358       .  S
F264        C671   1.356       .  S
C265        C266   1.409       .  A
C265        C270   1.401       .  A
C265        F272   1.358       .  S
C266        C267   1.412       .  A
C267        C268   1.395       .  A
C267        F274   1.351       .  S
C268        C269   1.401       .  A
C268        F273   1.357       .  S
C269       C1062   1.484       .  S
C269        C270   1.409       .  A
C270        F271   1.358       .  S
C275        C276   1.412       .  A
C275        C280   1.403   1_565  A
C275        F696   1.357       .  S
C276        C638   1.503       .  S
C276        C277   1.405   1_565  A
C277        C278   1.396       .  A
C277        F284   1.356   1_545  S
C278        C279   1.404       .  A
C278        F283   1.352       .  S
C279        C280   1.406       .  A
C280        F281   1.352       .  S
F282        C689   1.357       .  S
C285        C286   1.404       .  A
C285        C290   1.377       .  A
C285        F292   1.350       .  S
C286        C287   1.412       .  A
C287        C288   1.399       .  A
C287        F294   1.350       .  S
C288        C289   1.411       .  A
C288        F293   1.352       .  S
C289        C290   1.396       .  A
C290        F291   1.353       .  S
C295        C296   1.403       .  A
C295        C300   1.405       .  A
C295        F302   1.355       .  S
C296        C297   1.397       .  A
C297        C298   1.395       .  A
C297        F304   1.354       .  S
C298        C299   1.416       .  A
C298        F303   1.355       .  S
C299        C300   1.410       .  A
C300        F301   1.354       .  S
C305        C306   1.410       .  A
C305        C310   1.404       .  A
C305        F312   1.353       .  S
C306        C307   1.406       .  A
C307        C308   1.403       .  A
C307        F314   1.357       .  S
C308        C309   1.415       .  A
C308        F313   1.357       .  S
C309        C310   1.405       .  A
C310        F311   1.356       .  S
C315        C316   1.411       .  A
C315        C320   1.412       .  A
C315        F322   1.353       .  S
C316        C731   1.410       .  A
C317        C318   1.397       .  A
C317        C730   1.410       .  A
C317        F324   1.346       .  S
C318        C733   1.398       .  A
C318        F323   1.357       .  S
C319        C320   1.409       .  A
C319        C732   1.398       .  A
C320        F321   1.356       .  S
C325        C326   1.411       .  A
C325        C330   1.417       .  A
C325        F332   1.356       .  S
C326        C741   1.404       .  A
C327        C328   1.398       .  A
C327        C740   1.404   1_545  A
C327        F334   1.357       .  S
C328        C329   1.411       .  A
C328        F333   1.349       .  S
C329        C744   1.414   1_545  A
C330        C743   1.414       .  A
C330        F331   1.357       .  S
C335        C340   1.392       .  A
C335       C1164   1.407   1_455  A
C335        F342   1.357       .  S
C336        C337   1.412       .  A
C336       C1163   1.407       .  A
C337        C338   1.403       .  A
C337        F344   1.357       .  S
C338        C339   1.405       .  A
C338        F343   1.355       .  S
C339       C1168   1.400       .  A
C340       C1167   1.400   1_455  A
C340        F341   1.355       .  S
C345        C346   1.419       .  A
C345        C350   1.401       .  A
C345        F352   1.339       .  S
C346       C1175   1.432       .  A
C347        C348   1.371       .  A
C347       C1174   1.432   1_455  A
C347        F354   1.354       .  S
C348       C1177   1.379   1_455  A
C348        F353   1.357       .  S
C349        C350   1.395       .  A
C349       C1176   1.379       .  A
C350        F351   1.350       .  S
C355        C356   1.409       .  A
C355        C360   1.393       .  A
C355        F362   1.356       .  S
C356        C357   1.407       .  A
C357        C358   1.388       .  A
C357        F364   1.357       .  S
C358        C359   1.400       .  A
C358        F363   1.355       .  S
C359        C360   1.401       .  A
C360        F361   1.356       .  S
C365        C366   1.409       .  A
C365        C784   1.413       .  A
C365        F372   1.353       .  S
C366        C367   1.409       .  A
C367        C368   1.406       .  A
C367        F374   1.350       .  S
C368        C783   1.407       .  A
C368        F373   1.357       .  S
C369        C370   1.414       .  A
C369        C782   1.407       .  A
C370        C779   1.413   1_545  A
C370        F371   1.357       .  S
C375        C376   1.400       .  A
C375        C380   1.398   1_455  A
C375        F382   1.357       .  S
C376        C377   1.404       .  A
C377        C378   1.408       .  A
C377        F384   1.356       .  S
C378        C379   1.414   1_455  A
C378        F383   1.354   1_455  S
C379        C906   1.523       .  S
C379        C380   1.415       .  A
C380        F381   1.347       .  S
C385        C386   1.407       .  A
C385        C804   1.403   1_545  A
C385        F392   1.357       .  S
C386        C801   1.410       .  A
C387        C388   1.410       .  A
C387        C800   1.410       .  A
C387        F394   1.355       .  S
C388        C389   1.409       .  A
C388        F393   1.353       .  S
C389        C390   1.409       .  A
C390        C799   1.403       .  A
C390        F391   1.354       .  S
C395        C396   1.411       .  A
C395        C400   1.416   1_655  A
C395       F1230   1.356       .  S
C396        C904   1.525       .  S
C396        C397   1.415       .  A
C397        C398   1.401   1_655  A
C397        F404   1.352       .  S
C398        C399   1.402       .  A
C398        F403   1.354       .  S
C399        C400   1.414       .  A
C400        F401   1.353       .  S
F402       C1223   1.356       .  S
C405        C406   1.399       .  A
C405        C410   1.401       .  A
C405        F412   1.357       .  S
C406        C407   1.412       .  A
C407        C408   1.413       .  A
C407        F414   1.356       .  S
C408        C409   1.416       .  A
C408        F413   1.351       .  S
C409        C410   1.418       .  A
C410        F411   1.354       .  S
Zr415       O416   2.443       .  S
Zr415       O417   2.474       .  S
Zr415       O418   2.397       .  S
Zr415       O421   2.367       .  S
Zr415       O423   2.368       .  S
Zr415       O424   2.369       .  S
Zr415       O425   2.412       .  S
Zr415       O426   2.405       .  S
O416        H472   0.990       .  S
O416        H480   0.990       .  S
O417        C437   1.289       .  A
O418        C439   1.270       .  A
O419       Zr429   2.468       .  S
O419        C438   1.293       .  A
O420       Zr428   2.488       .  S
O420        C439   1.295       .  A
O421        C438   1.269       .  A
O422       Zr430   2.418       .  S
O422        C437   1.279       .  A
O423       Zr428   2.415       .  S
O423       Zr430   2.388       .  S
O424       Zr429   2.399       .  S
O424       Zr430   2.372       .  S
O424        H459   0.966       .  S
O425       Zr428   2.427       .  S
O425       Zr445   2.383       .  S
O425        H462   0.962       .  S
O426       Zr429   2.373       .  S
O426       Zr445   2.397       .  S
Zr427       O452   2.439       .  S
Zr427       O446   2.433       .  S
Zr427       O454   2.402       .  S
Zr427       O442   2.378       .  S
Zr427       O433   2.396       .  S
Zr427       O434   2.399       .  S
Zr427       O435   2.377       .  S
Zr427       O436   2.375       .  S
Zr428       O447   2.435       .  S
Zr428       O440   2.431       .  S
Zr428       O441   2.500       .  S
Zr428       O434   2.402       .  S
Zr428       O435   2.411       .  S
Zr429       O431   2.431       .  S
Zr429       O453   2.436       .  S
Zr429       O455   2.452       .  S
Zr429       O433   2.380       .  S
Zr429       O436   2.410       .  S
Zr430       O456   2.434       .  S
Zr430       O457   2.419       .  S
Zr430       O432   2.438       .  S
Zr430       O433   2.383       .  S
Zr430       O434   2.362       .  S
O431        H468   0.989       .  S
O432        H463   0.990       .  S
O432        H477   0.990       .  S
O434        H460   0.961       .  S
O435       Zr445   2.369       .  S
O436       Zr445   2.361       .  S
O436        H461   0.966       .  S
C437        C496   1.495       .  S
C438        C493   1.466       .  S
C439        C503   1.490       .  S
O440        H476   0.990       .  S
O441        C443   1.299       .  A
O442        C443   1.273       .  A
C443        C487   1.481       .  S
O444       Zr445   2.437       .  S
O444        H473   0.990       .  S
Zr445       O448   2.436       .  S
Zr445       O449   2.441       .  S
Zr445       O450   2.417       .  S
O446        C451   1.280       .  A
O447        H464   0.990       .  S
O447        H479   0.990       .  S
O448        H465   0.990       .  S
O449        H469   0.990       .  S
O449        H478   0.988       .  S
O450        C451   1.276       .  A
C451        C490   1.485       .  S
O452        H471   0.990       .  S
O452        H475   0.989       .  S
O453        H467   0.990       .  S
O453        H474   0.990       .  S
O454        C458   1.275       .  A
O455        C458   1.288       .  A
O456        H466   0.990       .  S
O457        H470   0.989       .  S
C458        C491   1.472       .  S
C481        C482   1.427       .  A
C481        C486   1.409       .  A
C481        C820   1.515       .  S
C482        C483   1.457       .  A
C482        C803   1.510       .  S
C483        C484   1.449       .  A
C483        C780   1.518       .  S
C484        C485   1.422       .  A
C484        C813   1.517       .  S
C485        C486   1.413       .  A
C485        C790   1.500       .  S
C486        C773   1.482       .  S
C487        C783   1.519       .  S
C487        C488   1.365       .  D
C488        C533   1.475       .  S
C488        C770   1.486       .  S
C489        C548   1.474       .  S
C489        C823   1.527       .  S
C489        C490   1.384       .  D
C490       C1638   1.525       .  S
C491        C800   1.507       .  S
C491        C492   1.372       .  D
C492        C541   1.488       .  S
C492       C1621   1.523       .  S
C493        C750   1.501       .  S
C493        C494   1.385       .  D
C494       C1427   1.458       .  S
C494        C760   1.537       .  S
C495        C607   1.498       .  S
C495        C740   1.510       .  S
C496        C730   1.515       .  S
C497        C912   1.428   1_455  A
C497        C502   1.416       .  A
C497        C743   1.526       .  S
C498        C911   1.428   1_565  A
C498        C499   1.421       .  A
C498        C763   1.470       .  S
C499        C720   1.510       .  S
C500        C501   1.426       .  A
C500        C733   1.500       .  S
C501       C1330   1.430       .  A
C501        C753   1.490       .  S
C502       C1329   1.430   1_455  A
C502        C710   1.496       .  S
C503        C723   1.513       .  S
C503        C504   1.369       .  D
C504        C614   1.489       .  S
C504        C713   1.515       .  S
Zr505       O506   2.448       .  S
Zr505      O1335   2.471       .  S
Zr505      O1336   2.419       .  S
Zr505      O1341   2.378       .  S
Zr505      O1343   2.411       .  S
Zr505       O516   2.404       .  S
O506        H562   0.990       .  S
O506        H570   0.991       .  S
O507      Zr1333   2.471   1_455  S
O508      Zr1333   2.419   1_455  S
O508        C529   1.277       .  A
O509       Zr519   2.461   1_556  S
O509        C528   1.292       .  A
O510       Zr518   2.456   1_556  S
O510        C529   1.289       .  A
O511        C528   1.270       .  A
O512       Zr520   2.436       .  S
O512        C527   1.283       .  A
O513      Zr1333   2.378   1_455  S
O513       Zr518   2.402   1_556  S
O514       Zr519   2.397   1_556  S
O514      Zr1348   2.355       .  S
O514        H549   0.963       .  S
O515      Zr1333   2.411       .  S
O515       Zr518   2.387   1_656  S
O515      Zr1363   2.397   1_556  S
O515        H552   0.962       .  S
O516       Zr535   2.374   1_556  S
Zr517      O1364   2.452       .  S
Zr517       O958   2.393       .  S
Zr517       O532   2.378   1_655  S
Zr517       O937   2.402       .  S
Zr517       O524   2.397   1_655  S
Zr517       O525   2.376   1_655  S
Zr517      O1354   2.379       .  S
Zr518       O537   2.436       .  S
Zr518       O530   2.436   1_554  S
Zr518       O531   2.456       .  S
Zr518       O524   2.385       .  S
Zr518       O525   2.389       .  S
Zr519       O521   2.434       .  S
Zr519       O543   2.437   1_554  S
Zr519       O545   2.455       .  S
Zr519       O523   2.387       .  S
Zr520       O546   2.436       .  S
Zr520       O547   2.417   1_556  S
Zr520      O1342   2.355   1_455  S
Zr520      O1351   2.387   1_456  S
O521        H558   0.990   1_554  S
O522        H567   0.989   1_554  S
O523       Zr931   2.402   1_565  S
O523      Zr1348   2.387   1_554  S
O524        H550   0.964       .  S
O525      Zr1363   2.379   1_455  S
O526      Zr1345   2.379       .  S
O526       Zr535   2.378       .  S
C527        C647   1.509       .  S
C528        C637   1.488       .  S
C529        C646   1.482       .  S
O530        H566   0.990       .  S
O531        C533   1.290       .  A
O532        C533   1.272       .  A
O534       Zr535   2.428   1_556  S
O534        H563   0.989       .  S
Zr535       O538   2.435   1_554  S
Zr535       O539   2.443       .  S
Zr535       O540   2.417       .  S
Zr535      O1343   2.397   1_554  S
Zr535      O1353   2.379       .  S
O536      Zr1345   2.452       .  S
O536        C541   1.286       .  A
O537        H554   0.990       .  S
O537        H569   0.990   1_554  S
O538        H555   0.990   1_556  S
O539        H559   0.990       .  S
O539        H568   0.989       .  S
O540        C541   1.280       .  A
O542        H561   0.990       .  S
O542        H565   0.989       .  S
O543        H557   0.990       .  S
O543        H564   0.990       .  S
O544       Zr931   2.393   1_565  S
O544        C548   1.274       .  A
O545        C548   1.288       .  A
O546        H556   0.990       .  S
O547        H560   0.990       .  S
Zr571       O572   2.448       .  S
Zr571       O573   2.467       .  S
Zr571       O574   2.426       .  S
Zr571       O577   2.360       .  S
Zr571       O579   2.366       .  S
Zr571       O580   2.391       .  S
Zr571       O581   2.405       .  S
Zr571       O582   2.400       .  S
O572        H628   0.990       .  S
O572        H636   0.991       .  S
O573        C593   1.286       .  A
O574        C595   1.278       .  A
O575       Zr585   2.481       .  S
O575        C594   1.292       .  A
O576       Zr584   2.464       .  S
O576        C595   1.291       .  A
O577        C594   1.270       .  A
O578       Zr586   2.425       .  S
O578        C593   1.280       .  A
O579       Zr584   2.402       .  S
O579       Zr586   2.378       .  S
O580       Zr585   2.415       .  S
O580       Zr586   2.370       .  S
O580        H615   0.964       .  S
O581       Zr584   2.404       .  S
O581       Zr601   2.396       .  S
O581        H618   0.960       .  S
O582       Zr585   2.402       .  S
O582       Zr601   2.386       .  S
Zr583       O608   2.448       .  S
Zr583       O602   2.466       .  S
Zr583       O610   2.373       .  S
Zr583       O598   2.362       .  S
Zr583       O589   2.410       .  S
Zr583       O590   2.409       .  S
Zr583       O591   2.370       .  S
Zr583       O592   2.369       .  S
Zr584       O603   2.436       .  S
Zr584       O596   2.436   1_455  S
Zr584       O597   2.473       .  S
Zr584       O590   2.388       .  S
Zr584       O591   2.420       .  S
Zr585       O587   2.436       .  S
Zr585       O609   2.435       .  S
Zr585       O611   2.495       .  S
Zr585       O589   2.374       .  S
Zr585       O592   2.415       .  S
Zr586       O612   2.434       .  S
Zr586       O613   2.412       .  S
Zr586       O588   2.439       .  S
Zr586       O589   2.385       .  S
Zr586       O590   2.367       .  S
O587        H624   0.990       .  S
O588        H619   0.989       .  S
O588        H633   0.989       .  S
O590        H616   0.962       .  S
O591       Zr601   2.374       .  S
O592       Zr601   2.368       .  S
O592        H617   0.966       .  S
C593        C645   1.502       .  S
C594        C638   1.463       .  S
C595        C648   1.488       .  S
O596        H632   0.990       .  S
O597        C599   1.297       .  A
O598        C599   1.267       .  A
C599       C1322   1.458       .  S
O600       Zr601   2.430   1_545  S
O600        H629   0.991       .  S
Zr601       O604   2.436       .  S
Zr601       O605   2.437       .  S
Zr601       O606   2.416       .  S
O602        C607   1.286       .  A
O603        H620   0.990       .  S
O603        H635   0.990       .  S
O604        H621   0.990       .  S
O605        H625   0.988       .  S
O605        H634   0.988       .  S
O606        C607   1.276       .  A
O608        H627   0.990       .  S
O608        H631   0.991       .  S
O609        H623   0.989       .  S
O609        H630   0.990       .  S
O610        C614   1.266       .  A
O611        C614   1.293       .  A
O612        H622   0.990       .  S
O613        H626   0.990       .  S
C637        C700   1.505       .  S
C637        C638   1.371       .  D
C639        C640   1.422       .  A
C639        C644   1.424       .  A
C639        C663   1.519       .  S
C640        C641   1.434       .  A
C640        C703   1.498       .  S
C641        C642   1.421       .  A
C641        C680   1.506       .  S
C642        C643   1.431       .  A
C642        C650   1.517       .  S
C643        C644   1.436       .  A
C643        C693   1.498       .  S
C644        C673   1.495       .  S
C645       C1481   1.529       .  S
C645        C646   1.385       .  D
C646        C660   1.503       .  S
C647        C648   1.383       .  D
C648       C1511   1.484   1_455  S
C649        C650   1.401       .  A
C649        C654   1.400       .  A
C649        F656   1.356       .  S
C650        C651   1.413       .  A
C651        C652   1.418       .  A
C651        F658   1.354       .  S
C652        C653   1.413       .  A
C652        F657   1.356       .  S
C653       C1473   1.529       .  S
C653        C654   1.412       .  A
C654        F655   1.347       .  S
C659        C660   1.406       .  A
C659        C664   1.404       .  A
C659        F666   1.357       .  S
C660        C661   1.411       .  A
C661        C662   1.406       .  A
C661        F668   1.358       .  S
C662        C663   1.411       .  A
C662        F667   1.358       .  S
C663        C664   1.413       .  A
C664        F665   1.353       .  S
C669        C670   1.414       .  A
C669        C674   1.394       .  A
C669        F676   1.344       .  S
C670        C671   1.412       .  A
C671        C672   1.410       .  A
C672        C673   1.406       .  A
C672        F677   1.352       .  S
C673        C674   1.395       .  A
C674        F675   1.358       .  S
C679        C680   1.409       .  A
C679        C684   1.401       .  A
C679        F686   1.358       .  S
C680        C681   1.412       .  A
C681        C682   1.395       .  A
C681        F688   1.352       .  S
C682        C683   1.401       .  A
C682        F687   1.357       .  S
C683       C1476   1.484       .  S
C683        C684   1.409       .  A
C684        F685   1.358       .  S
C689        C690   1.412       .  A
C689        C694   1.403       .  A
C690        C691   1.405       .  A
C691        C692   1.396       .  A
C691        F698   1.356       .  S
C692        C693   1.404       .  A
C692        F697   1.352       .  S
C693        C694   1.406       .  A
C694        F695   1.352       .  S
C699        C700   1.404       .  A
C699        C704   1.377       .  A
C699        F706   1.350       .  S
C700        C701   1.412       .  A
C701        C702   1.399       .  A
C701        F708   1.350       .  S
C702        C703   1.411       .  A
C702        F707   1.352       .  S
C703        C704   1.396       .  A
C704        F705   1.353       .  S
C709        C710   1.403       .  A
C709        C714   1.405       .  A
C709        F716   1.355       .  S
C710        C711   1.397       .  A
C711        C712   1.395       .  A
C711        F718   1.354       .  S
C712        C713   1.416       .  A
C712        F717   1.355       .  S
C713        C714   1.410       .  A
C714        F715   1.354       .  S
C719        C720   1.410       .  A
C719        C724   1.404       .  A
C719        F726   1.353       .  S
C720        C721   1.406       .  A
C721        C722   1.403       .  A
C721        F728   1.357       .  S
C722        C723   1.415       .  A
C722        F727   1.357       .  S
C723        C724   1.405       .  A
C724        F725   1.356       .  S
C729        C730   1.411       .  A
C729        C734   1.412       .  A
C729        F736   1.353       .  S
C731        C732   1.397       .  A
C731        F738   1.346   1_545  S
C732        F737   1.357       .  S
C733        C734   1.409       .  A
C734        F735   1.356       .  S
C739        C740   1.411       .  A
C739        C744   1.417       .  A
C739        F746   1.356       .  S
C741        C742   1.398       .  A
C741        F748   1.357       .  S
C742        C743   1.411       .  A
C742        F747   1.349       .  S
C744        F745   1.357       .  S
C749       C1578   1.407   1_455  A
C749        C754   1.392       .  A
C749        F756   1.357       .  S
C750       C1577   1.407       .  A
C750        C751   1.412       .  A
C751        C752   1.403       .  A
C751        F758   1.357       .  S
C752        C753   1.405       .  A
C752        F757   1.355       .  S
C753       C1582   1.400       .  A
C754       C1581   1.400   1_455  A
C754        F755   1.355       .  S
C759        C760   1.419       .  A
C759        C764   1.401       .  A
C759        F766   1.339       .  S
C760       C1589   1.432       .  A
C761       C1588   1.432   1_455  A
C761        C762   1.371       .  A
C761        F768   1.354       .  S
C762       C1591   1.379   1_455  A
C762        F767   1.357       .  S
C763       C1590   1.379       .  A
C763        C764   1.395       .  A
C764        F765   1.350       .  S
C769        C770   1.409       .  A
C769        C774   1.393       .  A
C769        F776   1.356       .  S
C770        C771   1.407       .  A
C771        C772   1.388       .  A
C771        F778   1.357       .  S
C772        C773   1.400       .  A
C772        F777   1.355       .  S
C773        C774   1.401       .  A
C774        F775   1.356       .  S
C779        C780   1.409       .  A
C779        F786   1.353       .  S
C780        C781   1.409       .  A
C781        C782   1.406   1_565  A
C781        F788   1.350       .  S
C782        F787   1.357       .  S
C783        C784   1.414       .  A
C784        F785   1.357       .  S
C789        C790   1.400       .  A
C789        C794   1.398   1_455  A
C789        F796   1.357       .  S
C790        C791   1.404       .  A
C791        C792   1.408       .  A
C791        F798   1.356       .  S
C792        C793   1.414   1_455  A
C792        F797   1.354   1_455  S
C793       C1320   1.523       .  S
C793        C794   1.415       .  A
C794        F795   1.347       .  S
C799        C800   1.407       .  A
C799        F806   1.357       .  S
C801        C802   1.410   1_545  A
C801        F808   1.355       .  S
C802        C803   1.409       .  A
C802        F807   1.353       .  S
C803        C804   1.409       .  A
C804        F805   1.354       .  S
C809        C810   1.411       .  A
C809        C814   1.416   1_655  A
C809       F1644   1.356       .  S
C810       C1318   1.525       .  S
C810        C811   1.415       .  A
C811        C812   1.401   1_655  A
C811        F818   1.352       .  S
C812        C813   1.402       .  A
C812        F817   1.354       .  S
C813        C814   1.414       .  A
C814        F815   1.353       .  S
F816       C1637   1.356       .  S
C819        C820   1.399       .  A
C819        C824   1.401       .  A
C819        F826   1.357       .  S
C820        C821   1.412       .  A
C821        C822   1.413       .  A
C821        F828   1.356       .  S
C822        C823   1.416       .  A
C822        F827   1.351       .  S
C823        C824   1.418       .  A
C824        F825   1.354       .  S
Zr829       O830   2.443       .  S
Zr829       O831   2.474       .  S
Zr829       O832   2.397       .  S
Zr829       O835   2.367       .  S
Zr829       O837   2.368       .  S
Zr829       O838   2.369       .  S
Zr829       O839   2.412       .  S
Zr829       O840   2.405       .  S
O830        H886   0.990       .  S
O830        H894   0.990       .  S
O831        C851   1.289       .  A
O832        C853   1.270       .  A
O833       Zr843   2.468       .  S
O833        C852   1.293       .  A
O834       Zr842   2.488       .  S
O834        C853   1.295       .  A
O835        C852   1.269       .  A
O836       Zr844   2.418       .  S
O836        C851   1.279       .  A
O837       Zr842   2.415       .  S
O837       Zr844   2.388       .  S
O838       Zr843   2.399       .  S
O838       Zr844   2.372       .  S
O838        H873   0.966       .  S
O839       Zr842   2.427       .  S
O839       Zr859   2.383       .  S
O839        H876   0.962       .  S
O840       Zr843   2.373       .  S
O840       Zr859   2.397       .  S
Zr841       O866   2.439       .  S
Zr841       O860   2.433       .  S
Zr841       O868   2.402       .  S
Zr841       O856   2.378       .  S
Zr841       O847   2.396       .  S
Zr841       O848   2.399       .  S
Zr841       O849   2.377       .  S
Zr841       O850   2.375       .  S
Zr842       O861   2.435       .  S
Zr842       O854   2.431       .  S
Zr842       O855   2.500       .  S
Zr842       O848   2.402       .  S
Zr842       O849   2.411       .  S
Zr843       O845   2.431       .  S
Zr843       O867   2.436       .  S
Zr843       O869   2.452       .  S
Zr843       O847   2.380       .  S
Zr843       O850   2.410       .  S
Zr844       O870   2.434       .  S
Zr844       O871   2.419       .  S
Zr844       O846   2.438       .  S
Zr844       O847   2.383       .  S
Zr844       O848   2.362       .  S
O845        H882   0.989   1_655  S
O846        H877   0.990   1_545  S
O846        H891   0.990       .  S
O848        H874   0.961       .  S
O849       Zr859   2.369       .  S
O850       Zr859   2.361       .  S
O850        H875   0.966       .  S
C851        C910   1.495       .  S
C852        C907   1.466       .  S
C853        C917   1.490       .  S
O854        H890   0.990       .  S
O855        C857   1.299       .  A
O856        C857   1.273       .  A
C857        C901   1.481       .  S
O858       Zr859   2.437       .  S
O858        H887   0.990       .  S
Zr859       O862   2.436       .  S
Zr859       O863   2.441       .  S
Zr859       O864   2.417       .  S
O860        C865   1.280       .  A
O861        H878   0.990       .  S
O861        H893   0.990       .  S
O862        H879   0.990       .  S
O863        H883   0.990       .  S
O863        H892   0.988       .  S
O864        C865   1.276       .  A
C865        C904   1.485       .  S
O866        H885   0.990       .  S
O866        H889   0.989       .  S
O867        H881   0.990       .  S
O867        H888   0.990       .  S
O868        C872   1.275       .  A
O869        C872   1.288       .  A
O870        H880   0.990   1_545  S
O871        H884   0.989   1_545  S
C872        C905   1.472       .  S
C895        C896   1.427       .  A
C895        C900   1.409       .  A
C895       C1234   1.515       .  S
C896        C897   1.457       .  A
C896       C1217   1.510       .  S
C897        C898   1.449       .  A
C897       C1194   1.518       .  S
C898        C899   1.422       .  A
C898       C1227   1.517       .  S
C899        C900   1.413       .  A
C899       C1204   1.500       .  S
C900       C1187   1.482       .  S
C901       C1197   1.519       .  S
C901        C902   1.365       .  D
C902        C947   1.475       .  S
C902       C1184   1.486       .  S
C903        C962   1.474       .  S
C903       C1237   1.527       .  S
C903        C904   1.384       .  D
C905       C1214   1.507       .  S
C905        C906   1.372       .  D
C906        C955   1.488       .  S
C907       C1164   1.501       .  S
C907        C908   1.385   1_655  D
C908       C1174   1.537   1_455  S
C909       C1021   1.498       .  S
C909       C1154   1.510       .  S
C909       C1324   1.380       .  D
C910       C1144   1.515       .  S
C910       C1323   1.380   1_545  D
C911        C916   1.416       .  A
C911       C1157   1.526       .  S
C912        C913   1.421       .  A
C912       C1177   1.470       .  S
C913       C1328   1.418       .  A
C913       C1134   1.510       .  S
C914       C1327   1.418   1_545  A
C914        C915   1.426       .  A
C914       C1147   1.500       .  S
C915       C1167   1.490       .  S
C916       C1124   1.496       .  S
C917       C1137   1.513       .  S
C917        C918   1.369       .  D
C918       C1028   1.489       .  S
C918       C1127   1.515       .  S
Zr919       O920   2.448   1_545  S
Zr919      O1339   2.389   1_545  S
Zr919      O1342   2.393   1_545  S
Zr919       O930   2.404   1_545  S
O920        H976   0.990   1_565  S
O920        H984   0.991   1_565  S
O921       C1355   1.287       .  A
O922        C943   1.277       .  A
O923       Zr933   2.461   1_556  S
O923        C942   1.292       .  A
O924       Zr932   2.456   1_556  S
O924        C943   1.289       .  A
O925      Zr1333   2.389       .  S
O925        C942   1.270       .  A
O926       Zr934   2.436       .  S
O926        C941   1.283       .  A
O927       Zr932   2.402   1_556  S
O927      Zr1348   2.389   1_545  S
O928      Zr1333   2.393       .  S
O928       Zr933   2.397   1_556  S
O928        H963   0.963       .  S
O929       Zr932   2.387   1_556  S
O929        H966   0.962       .  S
O930      Zr1347   2.371   1_556  S
O930       Zr949   2.374   1_566  S
Zr931      O1370   2.444   1_545  S
Zr931       O946   2.378       .  S
Zr931       O938   2.397       .  S
Zr931       O939   2.376       .  S
Zr932       O951   2.436       .  S
Zr932       O944   2.436   1_554  S
Zr932       O945   2.456       .  S
Zr932       O938   2.385       .  S
Zr932       O939   2.389       .  S
Zr933       O935   2.434       .  S
Zr933       O957   2.437   1_554  S
Zr933       O959   2.455       .  S
Zr933      O1344   2.371   1_554  S
Zr933       O937   2.387       .  S
Zr933      O1354   2.390       .  S
Zr934       O960   2.436       .  S
Zr934       O961   2.417   1_556  S
Zr934      O1350   2.437   1_556  S
Zr934      O1341   2.389       .  S
Zr934      O1352   2.382   1_556  S
O935        H972   0.990   1_554  S
O936      Zr1348   2.437   1_554  S
O936       H1381   0.990   1_554  S
O936        H981   0.989   1_564  S
O938      Zr1348   2.382   1_544  S
O938        H964   0.964       .  S
O940      Zr1347   2.390       .  S
O940       Zr949   2.378   1_565  S
O940       H1379   0.966       .  S
C941       O1335   1.287       .  A
C941       C1061   1.509       .  S
C942       C1051   1.488       .  S
C943       C1060   1.482       .  S
O944        H980   0.990       .  S
O945        C947   1.290       .  A
O946        C947   1.272       .  A
O948       Zr949   2.428   1_556  S
O948        H977   0.989       .  S
Zr949       O952   2.435   1_554  S
Zr949       O953   2.443       .  S
Zr949       O954   2.417       .  S
O950        C955   1.286       .  A
O951        H968   0.990       .  S
O951        H983   0.990   1_554  S
O952        H969   0.990   1_556  S
O953        H973   0.990       .  S
O953        H982   0.989       .  S
O954        C955   1.280       .  A
O956      Zr1345   2.444       .  S
O956        H975   0.990       .  S
O956        H979   0.989       .  S
O957        H971   0.990       .  S
O957        H978   0.990       .  S
O958        C962   1.274       .  A
O959        C962   1.288       .  A
O960        H970   0.990       .  S
O961        H974   0.990       .  S
H965       O1354   0.966       .  S
H967       O1350   0.990   1_556  S
Zr985       O986   2.448       .  S
Zr985       O987   2.467       .  S
Zr985       O988   2.426       .  S
Zr985       O991   2.360       .  S
Zr985       O993   2.366       .  S
Zr985       O994   2.391       .  S
Zr985       O995   2.405       .  S
Zr985       O996   2.400       .  S
O986       H1042   0.990       .  S
O986       H1050   0.991       .  S
O987       C1007   1.286       .  A
O988       C1009   1.278       .  A
O989       Zr999   2.481       .  S
O989       C1008   1.292       .  A
O990       Zr998   2.464       .  S
O990       C1009   1.291       .  A
O991       C1008   1.270       .  A
O992      Zr1000   2.425       .  S
O992       C1007   1.280       .  A
O993       Zr998   2.402       .  S
O993      Zr1000   2.378       .  S
O994       Zr999   2.415       .  S
O994      Zr1000   2.370       .  S
O994       H1029   0.964       .  S
O995       Zr998   2.404       .  S
O995      Zr1015   2.396       .  S
O995       H1032   0.960       .  S
O996       Zr999   2.402       .  S
O996      Zr1015   2.386       .  S
Zr997      O1022   2.448       .  S
Zr997      O1016   2.466       .  S
Zr997      O1024   2.373       .  S
Zr997      O1012   2.362       .  S
Zr997      O1003   2.410       .  S
Zr997      O1004   2.409       .  S
Zr997      O1005   2.370       .  S
Zr997      O1006   2.369       .  S
Zr998      O1017   2.436       .  S
Zr998      O1010   2.436       .  S
Zr998      O1011   2.473       .  S
Zr998      O1004   2.388       .  S
Zr998      O1005   2.420       .  S
Zr999      O1001   2.436       .  S
Zr999      O1023   2.435       .  S
Zr999      O1025   2.495       .  S
Zr999      O1003   2.374       .  S
Zr999      O1006   2.415       .  S
Zr1000     O1026   2.434       .  S
Zr1000     O1027   2.412       .  S
Zr1000     O1002   2.439       .  S
Zr1000     O1003   2.385       .  S
Zr1000     O1004   2.367       .  S
O1001      H1038   0.990       .  S
O1002      H1033   0.989       .  S
O1002      H1047   0.989       .  S
O1004      H1030   0.962       .  S
O1005     Zr1015   2.374       .  S
O1006     Zr1015   2.368       .  S
O1006      H1031   0.966       .  S
C1007      C1059   1.502       .  S
C1008      C1052   1.463       .  S
C1009      C1062   1.488       .  S
O1010      H1046   0.990       .  S
O1011      C1013   1.297       .  A
O1012      C1013   1.267       .  A
O1014     Zr1015   2.430       .  S
O1014      H1043   0.991       .  S
Zr1015     O1018   2.436       .  S
Zr1015     O1019   2.437       .  S
Zr1015     O1020   2.416       .  S
O1016      C1021   1.286       .  A
O1017      H1034   0.990       .  S
O1017      H1049   0.990       .  S
O1018      H1035   0.990       .  S
O1019      H1039   0.988       .  S
O1019      H1048   0.988       .  S
O1020      C1021   1.276       .  A
O1022      H1041   0.990       .  S
O1022      H1045   0.991       .  S
O1023      H1037   0.989       .  S
O1023      H1044   0.990       .  S
O1024      C1028   1.266       .  A
O1025      C1028   1.293       .  A
O1026      H1036   0.990       .  S
O1027      H1040   0.990       .  S
C1051      C1114   1.505       .  S
C1051      C1052   1.371       .  D
C1052      C1518   1.503       .  S
C1053      C1054   1.422       .  A
C1053      C1058   1.424       .  A
C1053      C1077   1.519       .  S
C1054      C1055   1.434       .  A
C1054      C1117   1.498       .  S
C1055      C1056   1.421       .  A
C1055      C1094   1.506       .  S
C1056      C1057   1.431       .  A
C1056      C1064   1.517       .  S
C1057      C1058   1.436       .  A
C1057      C1107   1.498       .  S
C1058      C1087   1.495       .  S
C1059      C1060   1.385       .  D
C1060      C1074   1.503       .  S
C1061      C1498   1.520       .  S
C1061      C1062   1.383       .  D
C1063      C1064   1.401       .  A
C1063      C1068   1.400       .  A
C1063      F1070   1.356       .  S
C1064      C1065   1.413       .  A
C1065      C1066   1.418       .  A
C1065      F1072   1.354       .  S
C1066      C1067   1.413   1_655  A
C1066      F1071   1.356   1_655  S
C1067      C1068   1.411   1_455  A
C1068      F1069   1.347       .  S
C1073      C1074   1.406       .  A
C1073      C1078   1.404       .  A
C1073      F1080   1.357       .  S
C1074      C1075   1.411       .  A
C1075      C1076   1.406       .  A
C1075      F1082   1.358       .  S
C1076      C1077   1.411       .  A
C1076      F1081   1.358       .  S
C1077      C1078   1.413       .  A
C1078      F1079   1.353       .  S
C1083      C1084   1.414       .  A
C1083      C1088   1.394   1_565  A
C1083      F1090   1.344       .  S
C1084      C1475   1.520       .  S
C1084      C1085   1.412       .  A
C1085      C1086   1.410   1_565  A
C1085      F1506   1.356       .  S
C1086      C1087   1.406       .  A
C1086      F1091   1.352       .  S
C1087      C1088   1.395       .  A
C1088      F1089   1.358       .  S
F1092      C1499   1.356       .  S
C1093      C1094   1.409       .  A
C1093      C1098   1.401       .  A
C1093      F1100   1.358       .  S
C1094      C1095   1.412       .  A
C1095      C1096   1.395       .  A
C1095      F1102   1.351       .  S
C1096      C1097   1.401       .  A
C1096      F1101   1.357   1_655  S
C1097      C1098   1.409       .  A
C1098      F1099   1.358       .  S
C1103      C1104   1.412       .  A
C1103      C1108   1.403   1_565  A
C1103      F1524   1.357       .  S
C1104      C1466   1.503       .  S
C1104      C1105   1.405   1_565  A
C1105      C1106   1.396       .  A
C1105      F1112   1.356   1_545  S
C1106      C1107   1.404       .  A
C1106      F1111   1.352       .  S
C1107      C1108   1.406       .  A
C1108      F1109   1.352       .  S
F1110      C1517   1.357       .  S
C1113      C1114   1.404       .  A
C1113      C1118   1.377       .  A
C1113      F1120   1.350       .  S
C1114      C1115   1.412       .  A
C1115      C1116   1.399       .  A
C1115      F1122   1.350       .  S
C1116      C1117   1.411       .  A
C1116      F1121   1.352       .  S
C1117      C1118   1.396       .  A
C1118      F1119   1.353       .  S
C1123      C1124   1.403       .  A
C1123      C1128   1.405       .  A
C1123      F1130   1.355       .  S
C1124      C1125   1.397       .  A
C1125      C1126   1.395       .  A
C1125      F1132   1.354       .  S
C1126      C1127   1.416       .  A
C1126      F1131   1.355       .  S
C1127      C1128   1.410       .  A
C1128      F1129   1.354       .  S
C1133      C1134   1.410       .  A
C1133      C1138   1.404       .  A
C1133      F1140   1.353       .  S
C1134      C1135   1.406       .  A
C1135      C1136   1.403       .  A
C1135      F1142   1.357       .  S
C1136      C1137   1.415       .  A
C1136      F1141   1.357       .  S
C1137      C1138   1.405       .  A
C1138      F1139   1.356       .  S
C1143      C1144   1.411       .  A
C1143      C1148   1.412       .  A
C1143      F1150   1.353       .  S
C1144      C1559   1.410       .  A
C1145      C1558   1.410       .  A
C1145      C1146   1.397       .  A
C1145      F1152   1.346       .  S
C1146      C1561   1.398       .  A
C1146      F1151   1.357       .  S
C1147      C1560   1.398       .  A
C1147      C1148   1.409       .  A
C1148      F1149   1.356       .  S
C1153      C1154   1.411       .  A
C1153      C1158   1.417       .  A
C1153      F1160   1.356       .  S
C1154      C1569   1.404       .  A
C1155      C1568   1.404   1_545  A
C1155      C1156   1.398       .  A
C1155      F1162   1.357       .  S
C1156      C1157   1.411       .  A
C1156      F1161   1.349       .  S
C1157      C1572   1.414   1_545  A
C1158      C1571   1.414       .  A
C1158      F1159   1.357       .  S
C1163      C1168   1.392       .  A
C1163      F1170   1.357       .  S
C1164      C1165   1.412       .  A
C1165      C1166   1.403       .  A
C1165      F1172   1.357       .  S
C1166      C1167   1.405       .  A
C1166      F1171   1.355       .  S
C1168      F1169   1.355       .  S
C1173      C1174   1.419       .  A
C1173      C1178   1.401       .  A
C1173      F1180   1.339       .  S
C1175      C1176   1.371       .  A
C1175      F1182   1.354       .  S
C1176      F1181   1.357       .  S
C1177      C1178   1.395       .  A
C1178      F1179   1.350       .  S
C1183      C1184   1.409       .  A
C1183      C1188   1.393       .  A
C1183      F1190   1.356       .  S
C1184      C1185   1.407       .  A
C1185      C1186   1.388       .  A
C1185      F1192   1.357       .  S
C1186      C1187   1.400       .  A
C1186      F1191   1.355       .  S
C1187      C1188   1.401       .  A
C1188      F1189   1.356       .  S
C1193      C1194   1.409       .  A
C1193      C1612   1.413       .  A
C1193      F1200   1.353       .  S
C1194      C1195   1.409       .  A
C1195      C1196   1.406       .  A
C1195      F1202   1.350       .  S
C1196      C1611   1.407       .  A
C1196      F1201   1.357       .  S
C1197      C1610   1.407       .  A
C1197      C1198   1.414       .  A
C1198      C1607   1.413   1_545  A
C1198      F1199   1.357       .  S
C1203      C1204   1.400       .  A
C1203      C1208   1.398       .  A
C1203      F1210   1.357       .  S
C1204      C1205   1.404       .  A
C1205      C1206   1.408       .  A
C1205      F1212   1.356       .  S
C1206      C1207   1.414       .  A
C1206      F1211   1.354       .  S
C1207      C1208   1.415       .  A
C1208      F1209   1.347       .  S
C1213      C1214   1.407       .  A
C1213      C1632   1.403   1_545  A
C1213      F1220   1.357       .  S
C1214      C1629   1.410       .  A
C1215      C1628   1.410       .  A
C1215      C1216   1.410       .  A
C1215      F1222   1.355       .  S
C1216      C1217   1.409       .  A
C1216      F1221   1.353       .  S
C1217      C1218   1.409       .  A
C1218      C1627   1.403       .  A
C1218      F1219   1.354       .  S
C1223      C1224   1.411       .  A
C1223      C1228   1.416       .  A
C1224      C1225   1.415       .  A
C1225      C1226   1.401       .  A
C1225      F1232   1.352       .  S
C1226      C1227   1.402       .  A
C1226      F1231   1.354       .  S
C1227      C1228   1.414       .  A
C1228      F1229   1.353       .  S
C1233      C1234   1.399       .  A
C1233      C1238   1.401       .  A
C1233      F1240   1.357       .  S
C1234      C1235   1.412       .  A
C1235      C1236   1.413       .  A
C1235      F1242   1.356       .  S
C1236      C1237   1.416       .  A
C1236      F1241   1.351       .  S
C1237      C1238   1.418       .  A
C1238      F1239   1.354       .  S
Zr1243     O1244   2.443       .  S
Zr1243     O1245   2.474       .  S
Zr1243     O1246   2.397       .  S
Zr1243     O1249   2.367       .  S
Zr1243     O1251   2.368       .  S
Zr1243     O1252   2.369       .  S
Zr1243     O1253   2.412       .  S
Zr1243     O1254   2.405       .  S
O1244      H1300   0.990       .  S
O1244      H1308   0.990       .  S
O1245      C1265   1.289       .  A
O1246      C1267   1.270       .  A
O1247     Zr1257   2.468       .  S
O1247      C1266   1.293       .  A
O1248     Zr1256   2.488       .  S
O1248      C1267   1.295       .  A
O1249      C1266   1.269       .  A
O1250     Zr1258   2.418       .  S
O1250      C1265   1.279       .  A
O1251     Zr1256   2.415       .  S
O1251     Zr1258   2.388       .  S
O1252     Zr1257   2.399       .  S
O1252     Zr1258   2.372       .  S
O1252      H1287   0.966       .  S
O1253     Zr1256   2.427       .  S
O1253     Zr1273   2.383       .  S
O1253      H1290   0.962       .  S
O1254     Zr1257   2.373       .  S
O1254     Zr1273   2.397       .  S
Zr1255     O1280   2.439       .  S
Zr1255     O1274   2.433       .  S
Zr1255     O1282   2.402       .  S
Zr1255     O1270   2.378       .  S
Zr1255     O1261   2.396       .  S
Zr1255     O1262   2.399       .  S
Zr1255     O1263   2.377       .  S
Zr1255     O1264   2.375       .  S
Zr1256     O1275   2.435       .  S
Zr1256     O1268   2.431       .  S
Zr1256     O1269   2.500       .  S
Zr1256     O1262   2.402       .  S
Zr1256     O1263   2.411       .  S
Zr1257     O1259   2.431       .  S
Zr1257     O1281   2.436       .  S
Zr1257     O1283   2.452       .  S
Zr1257     O1261   2.380       .  S
Zr1257     O1264   2.410       .  S
Zr1258     O1284   2.434       .  S
Zr1258     O1285   2.419       .  S
Zr1258     O1260   2.438       .  S
Zr1258     O1261   2.383       .  S
Zr1258     O1262   2.362       .  S
O1259      H1296   0.989   1_655  S
O1260      H1291   0.990       .  S
O1260      H1305   0.990       .  S
O1262      H1288   0.961       .  S
O1263     Zr1273   2.369       .  S
O1264     Zr1273   2.361       .  S
O1264      H1289   0.966       .  S
C1265      C1324   1.495       .  S
C1266      C1321   1.466       .  S
C1267      C1331   1.490       .  S
O1268      H1304   0.990       .  S
O1269      C1271   1.299       .  A
O1270      C1271   1.273       .  A
C1271      C1315   1.481       .  S
O1272     Zr1273   2.437       .  S
O1272      H1301   0.990       .  S
Zr1273     O1276   2.436       .  S
Zr1273     O1277   2.441       .  S
Zr1273     O1278   2.417       .  S
O1274      C1279   1.280       .  A
O1275      H1292   0.990       .  S
O1275      H1307   0.990       .  S
O1276      H1293   0.990       .  S
O1277      H1297   0.990       .  S
O1277      H1306   0.988       .  S
O1278      C1279   1.276       .  A
C1279      C1318   1.485       .  S
O1280      H1299   0.990       .  S
O1280      H1303   0.989       .  S
O1281      H1295   0.990       .  S
O1281      H1302   0.990       .  S
O1282      C1286   1.275       .  A
O1283      C1286   1.288       .  A
O1284      H1294   0.990       .  S
O1285      H1298   0.989       .  S
C1286      C1319   1.472       .  S
C1309      C1310   1.427       .  A
C1309      C1314   1.409       .  A
C1309      C1648   1.515       .  S
C1310      C1311   1.457       .  A
C1310      C1631   1.510       .  S
C1311      C1312   1.449       .  A
C1311      C1608   1.518       .  S
C1312      C1313   1.422       .  A
C1312      C1641   1.517       .  S
C1313      C1314   1.413       .  A
C1313      C1618   1.500       .  S
C1314      C1601   1.482       .  S
C1315      C1611   1.519       .  S
C1315      C1316   1.365       .  D
C1316      C1361   1.475       .  S
C1316      C1598   1.486       .  S
C1317      C1376   1.474       .  S
C1317      C1651   1.527       .  S
C1317      C1318   1.384       .  D
C1319      C1628   1.507       .  S
C1319      C1320   1.372       .  D
C1320      C1369   1.488       .  S
C1321      C1578   1.501       .  S
C1321      C1322   1.385   1_655  D
C1322      C1588   1.537   1_455  S
C1323      C1435   1.498       .  S
C1323      C1568   1.510       .  S
C1324      C1558   1.515       .  S
C1325      C1330   1.416       .  A
C1325      C1571   1.526       .  S
C1326      C1327   1.421       .  A
C1326      C1591   1.470       .  S
C1327      C1548   1.510       .  S
C1328      C1329   1.426       .  A
C1328      C1561   1.500       .  S
C1329      C1581   1.490       .  S
C1330      C1538   1.496       .  S
C1331      C1551   1.513       .  S
C1331      C1332   1.369       .  D
C1332      C1442   1.489       .  S
C1332      C1541   1.515       .  S
Zr1333     O1334   2.448       .  S
Zr1333     O1344   2.404       .  S
O1334      H1390   0.990       .  S
O1334      H1398   0.991       .  S
O1336      C1357   1.277       .  A
O1337     Zr1347   2.461   1_556  S
O1337      C1356   1.292       .  A
O1338     Zr1346   2.456   1_556  S
O1338      C1357   1.289       .  A
O1339      C1356   1.270       .  A
O1340     Zr1348   2.436       .  S
O1340      C1355   1.283       .  A
O1341     Zr1346   2.402   1_556  S
O1342     Zr1347   2.397   1_556  S
O1342      H1377   0.963       .  S
O1343     Zr1346   2.387   1_556  S
O1343      H1380   0.962       .  S
O1344     Zr1363   2.374   1_556  S
Zr1345     O1360   2.378       .  S
Zr1345     O1352   2.397       .  S
Zr1345     O1353   2.376       .  S
Zr1346     O1365   2.436       .  S
Zr1346     O1358   2.436   1_554  S
Zr1346     O1359   2.456       .  S
Zr1346     O1352   2.385       .  S
Zr1346     O1353   2.389       .  S
Zr1347     O1349   2.434       .  S
Zr1347     O1371   2.437   1_554  S
Zr1347     O1373   2.455       .  S
Zr1347     O1351   2.387       .  S
Zr1348     O1374   2.436       .  S
Zr1348     O1375   2.417   1_556  S
O1349      H1386   0.990   1_554  S
O1350      H1395   0.989   1_554  S
O1352      H1378   0.964       .  S
O1354     Zr1363   2.378       .  S
C1355      C1475   1.509       .  S
C1356      C1465   1.488       .  S
C1357      C1474   1.482       .  S
O1358      H1394   0.990       .  S
O1359      C1361   1.290       .  A
O1360      C1361   1.272       .  A
O1362     Zr1363   2.428   1_556  S
O1362      H1391   0.989       .  S
Zr1363     O1366   2.435   1_554  S
Zr1363     O1367   2.443       .  S
Zr1363     O1368   2.417       .  S
O1364      C1369   1.286       .  A
O1365      H1382   0.990       .  S
O1365      H1397   0.990   1_554  S
O1366      H1383   0.990   1_556  S
O1367      H1387   0.990       .  S
O1367      H1396   0.989       .  S
O1368      C1369   1.280       .  A
O1370      H1389   0.990       .  S
O1370      H1393   0.989       .  S
O1371      H1385   0.990       .  S
O1371      H1392   0.990       .  S
O1372      C1376   1.274       .  A
O1373      C1376   1.288       .  A
O1374      H1384   0.990       .  S
O1375      H1388   0.990       .  S
Zr1399     O1400   2.448       .  S
Zr1399     O1401   2.467       .  S
Zr1399     O1402   2.426       .  S
Zr1399     O1405   2.360       .  S
Zr1399     O1407   2.366       .  S
Zr1399     O1408   2.391       .  S
Zr1399     O1409   2.405       .  S
Zr1399     O1410   2.400       .  S
O1400      H1456   0.990       .  S
O1400      H1464   0.991       .  S
O1401      C1421   1.286       .  A
O1402      C1423   1.278       .  A
O1403     Zr1413   2.481       .  S
O1403      C1422   1.292       .  A
O1404     Zr1412   2.464       .  S
O1404      C1423   1.291       .  A
O1405      C1422   1.270       .  A
O1406     Zr1414   2.425       .  S
O1406      C1421   1.280       .  A
O1407     Zr1412   2.402       .  S
O1407     Zr1414   2.378       .  S
O1408     Zr1413   2.415       .  S
O1408     Zr1414   2.370       .  S
O1408      H1443   0.964       .  S
O1409     Zr1412   2.404       .  S
O1409     Zr1429   2.396       .  S
O1409      H1446   0.960       .  S
O1410     Zr1413   2.402       .  S
O1410     Zr1429   2.386       .  S
Zr1411     O1436   2.448       .  S
Zr1411     O1430   2.466       .  S
Zr1411     O1438   2.373       .  S
Zr1411     O1426   2.362       .  S
Zr1411     O1417   2.410       .  S
Zr1411     O1418   2.409       .  S
Zr1411     O1419   2.370       .  S
Zr1411     O1420   2.369       .  S
Zr1412     O1431   2.436       .  S
Zr1412     O1424   2.436       .  S
Zr1412     O1425   2.473       .  S
Zr1412     O1418   2.388       .  S
Zr1412     O1419   2.420       .  S
Zr1413     O1415   2.436       .  S
Zr1413     O1437   2.435       .  S
Zr1413     O1439   2.495       .  S
Zr1413     O1417   2.374       .  S
Zr1413     O1420   2.415       .  S
Zr1414     O1440   2.434       .  S
Zr1414     O1441   2.412       .  S
Zr1414     O1416   2.439       .  S
Zr1414     O1417   2.385       .  S
Zr1414     O1418   2.367       .  S
O1415      H1452   0.990       .  S
O1416      H1447   0.989       .  S
O1416      H1461   0.989       .  S
O1418      H1444   0.962       .  S
O1419     Zr1429   2.374       .  S
O1420     Zr1429   2.368       .  S
O1420      H1445   0.966       .  S
C1421      C1473   1.502       .  S
C1422      C1466   1.463       .  S
C1423      C1476   1.488       .  S
O1424      H1460   0.990       .  S
O1425      C1427   1.297       .  A
O1426      C1427   1.267       .  A
O1428     Zr1429   2.430   1_545  S
O1428      H1457   0.991       .  S
Zr1429     O1432   2.436       .  S
Zr1429     O1433   2.437       .  S
Zr1429     O1434   2.416       .  S
O1430      C1435   1.286       .  A
O1431      H1448   0.990       .  S
O1431      H1463   0.990       .  S
O1432      H1449   0.990       .  S
O1433      H1453   0.988       .  S
O1433      H1462   0.988       .  S
O1434      C1435   1.276       .  A
O1436      H1455   0.990       .  S
O1436      H1459   0.991       .  S
O1437      H1451   0.989       .  S
O1437      H1458   0.990       .  S
O1438      C1442   1.266       .  A
O1439      C1442   1.293       .  A
O1440      H1450   0.990       .  S
O1441      H1454   0.990       .  S
C1465      C1528   1.505       .  S
C1465      C1466   1.371       .  D
C1467      C1468   1.422       .  A
C1467      C1472   1.424       .  A
C1467      C1491   1.519       .  S
C1468      C1469   1.434       .  A
C1468      C1531   1.498       .  S
C1469      C1470   1.421       .  A
C1469      C1508   1.506       .  S
C1470      C1471   1.431       .  A
C1470      C1478   1.517       .  S
C1471      C1472   1.436       .  A
C1471      C1521   1.498       .  S
C1472      C1501   1.495       .  S
C1473      C1474   1.385       .  D
C1474      C1488   1.503       .  S
C1475      C1476   1.383       .  D
C1477      C1478   1.401       .  A
C1477      C1482   1.400       .  A
C1477      F1484   1.356       .  S
C1478      C1479   1.413       .  A
C1479      C1480   1.418       .  A
C1479      F1486   1.354       .  S
C1480      C1481   1.413   1_655  A
C1480      F1485   1.356   1_655  S
C1481      C1482   1.412   1_455  A
C1482      F1483   1.347       .  S
C1487      C1488   1.406       .  A
C1487      C1492   1.404       .  A
C1487      F1494   1.357       .  S
C1488      C1489   1.411       .  A
C1489      C1490   1.406       .  A
C1489      F1496   1.358       .  S
C1490      C1491   1.411       .  A
C1490      F1495   1.358       .  S
C1491      C1492   1.413       .  A
C1492      F1493   1.353       .  S
C1497      C1498   1.414       .  A
C1497      C1502   1.394       .  A
C1497      F1504   1.344       .  S
C1498      C1499   1.412       .  A
C1499      C1500   1.410       .  A
C1500      C1501   1.406       .  A
C1500      F1505   1.352       .  S
C1501      C1502   1.395       .  A
C1502      F1503   1.358       .  S
C1507      C1508   1.409       .  A
C1507      C1512   1.401       .  A
C1507      F1514   1.358       .  S
C1508      C1509   1.412       .  A
C1509      C1510   1.395       .  A
C1509      F1516   1.352       .  S
C1510      C1511   1.401       .  A
C1510      F1515   1.357   1_655  S
C1511      C1512   1.409       .  A
C1512      F1513   1.358       .  S
C1517      C1518   1.412       .  A
C1517      C1522   1.403       .  A
C1518      C1519   1.405       .  A
C1519      C1520   1.396       .  A
C1519      F1526   1.356       .  S
C1520      C1521   1.404       .  A
C1520      F1525   1.352       .  S
C1521      C1522   1.406       .  A
C1522      F1523   1.352       .  S
C1527      C1528   1.404       .  A
C1527      C1532   1.377       .  A
C1527      F1534   1.350       .  S
C1528      C1529   1.412       .  A
C1529      C1530   1.399       .  A
C1529      F1536   1.350       .  S
C1530      C1531   1.411       .  A
C1530      F1535   1.352       .  S
C1531      C1532   1.396       .  A
C1532      F1533   1.353       .  S
C1537      C1538   1.403       .  A
C1537      C1542   1.405       .  A
C1537      F1544   1.355       .  S
C1538      C1539   1.397       .  A
C1539      C1540   1.395       .  A
C1539      F1546   1.354       .  S
C1540      C1541   1.416       .  A
C1540      F1545   1.355       .  S
C1541      C1542   1.410       .  A
C1542      F1543   1.354       .  S
C1547      C1548   1.410       .  A
C1547      C1552   1.404       .  A
C1547      F1554   1.353       .  S
C1548      C1549   1.406       .  A
C1549      C1550   1.403       .  A
C1549      F1556   1.357       .  S
C1550      C1551   1.415       .  A
C1550      F1555   1.357       .  S
C1551      C1552   1.405       .  A
C1552      F1553   1.356       .  S
C1557      C1558   1.411       .  A
C1557      C1562   1.412       .  A
C1557      F1564   1.353       .  S
C1559      C1560   1.397       .  A
C1559      F1566   1.346   1_545  S
C1560      F1565   1.357       .  S
C1561      C1562   1.409       .  A
C1562      F1563   1.356       .  S
C1567      C1568   1.411       .  A
C1567      C1572   1.417       .  A
C1567      F1574   1.356       .  S
C1569      C1570   1.398       .  A
C1569      F1576   1.357       .  S
C1570      C1571   1.411       .  A
C1570      F1575   1.349       .  S
C1572      F1573   1.357       .  S
C1577      C1582   1.392       .  A
C1577      F1584   1.357       .  S
C1578      C1579   1.412       .  A
C1579      C1580   1.403       .  A
C1579      F1586   1.357       .  S
C1580      C1581   1.405       .  A
C1580      F1585   1.355       .  S
C1582      F1583   1.355       .  S
C1587      C1588   1.419       .  A
C1587      C1592   1.401       .  A
C1587      F1594   1.339       .  S
C1589      C1590   1.371       .  A
C1589      F1596   1.354       .  S
C1590      F1595   1.357       .  S
C1591      C1592   1.395       .  A
C1592      F1593   1.350       .  S
C1597      C1598   1.409       .  A
C1597      C1602   1.393       .  A
C1597      F1604   1.356       .  S
C1598      C1599   1.407       .  A
C1599      C1600   1.388       .  A
C1599      F1606   1.357       .  S
C1600      C1601   1.400       .  A
C1600      F1605   1.355       .  S
C1601      C1602   1.401       .  A
C1602      F1603   1.356       .  S
C1607      C1608   1.409       .  A
C1607      F1614   1.353       .  S
C1608      C1609   1.409       .  A
C1609      C1610   1.406   1_565  A
C1609      F1616   1.350       .  S
C1610      F1615   1.357       .  S
C1611      C1612   1.414       .  A
C1612      F1613   1.357       .  S
C1617      C1618   1.400       .  A
C1617      C1622   1.398       .  A
C1617      F1624   1.357       .  S
C1618      C1619   1.404       .  A
C1619      C1620   1.408       .  A
C1619      F1626   1.356       .  S
C1620      C1621   1.414       .  A
C1620      F1625   1.354       .  S
C1621      C1622   1.415       .  A
C1622      F1623   1.347       .  S
C1627      C1628   1.407       .  A
C1627      F1634   1.357       .  S
C1629      C1630   1.410   1_545  A
C1629      F1636   1.355       .  S
C1630      C1631   1.409       .  A
C1630      F1635   1.353       .  S
C1631      C1632   1.409       .  A
C1632      F1633   1.354       .  S
C1637      C1638   1.411       .  A
C1637      C1642   1.416       .  A
C1638      C1639   1.415       .  A
C1639      C1640   1.401       .  A
C1639      F1646   1.352       .  S
C1640      C1641   1.402       .  A
C1640      F1645   1.354       .  S
C1641      C1642   1.414       .  A
C1642      F1643   1.353       .  S
C1647      C1648   1.399       .  A
C1647      C1652   1.401       .  A
C1647      F1654   1.357       .  S
C1648      C1649   1.412       .  A
C1649      C1650   1.413       .  A
C1649      F1656   1.356       .  S
C1650      C1651   1.416       .  A
C1650      F1655   1.351       .  S
C1651      C1652   1.418       .  A
C1652      F1653   1.354       .  S
