geometry optimzed in LAMMPS
_audit_creation_date              2020-11-30 
_audit_creation_method            'lammps2cif' 
_symmetry_space_group_name_H-M    'P1' 
_symmetry_Int_Tables_number       1 
_symmetry_cell_setting            triclinic 
loop_ 
_symmetry_equiv_pos_as_xyz 
  x,y,z 
_cell_length_a                    61.01954682 
_cell_length_b                    60.70061539082833 
_cell_length_c                    40.97386448335381 
_cell_angle_alpha                 90.00836514462755 
_cell_angle_beta                  90.07170367119512 
_cell_angle_gamma                 90.08173304444307 
loop_ 
_atom_site_label 
_atom_site_type_symbol 
_atom_site_fract_x 
_atom_site_fract_y 
_atom_site_fract_z 
_atom_site_charge 
O1          O  0.51360416  0.87060809  0.85214537    -0.56800
C2          C  0.48330918  0.80867600  0.85760989     0.75800
O3          O  0.44795778  0.86610952  0.89590185    -0.58000
C4          C  0.50761113  0.88971321  0.84346535     0.75800
C5          C  0.45100245  0.85368508  0.79624940     0.78200
Cd6        Cd  0.47607185  0.85534364  0.85540544     1.37500
O7          O  0.49920761  0.82181134  0.85309407    -0.56800
O8          O  0.47076484  0.84753195  0.79789778    -0.55600
C9          C  0.46041478  0.86435350  0.92053306     0.78100
O10         O  0.44284190  0.86210412  0.82184292    -0.58000
O11         O  0.46474044  0.81732763  0.86215580    -0.56400
O12         O  0.48721792  0.89273591  0.84017482    -0.56400
O13         O  0.47999886  0.85882274  0.91471172    -0.55600
O14         O  0.49301985  0.62993320  0.83792058    -0.56800
C15         C  0.50588603  0.56623938  0.83575410     0.75800
O16         O  0.44456259  0.57875875  0.87783931    -0.58000
C17         C  0.47728279  0.64326253  0.84172624     0.75800
C18         C  0.44562328  0.59650935  0.77740159     0.78200
Cd19       Cd  0.46982820  0.59676934  0.83848291     1.37500
O20         O  0.50891076  0.58685524  0.83604580    -0.56800
O21         O  0.46617732  0.59897670  0.77882532    -0.55600
C22         C  0.45299772  0.58757418  0.90294832     0.78100
O23         O  0.43617728  0.59211704  0.80414547    -0.58000
O24         O  0.48614889  0.55979105  0.83547715    -0.56400
O25         O  0.45832507  0.63498388  0.84436509    -0.56400
O26         O  0.46870020  0.60075128  0.89807552    -0.55600
O27         O  0.42356732  0.96112250  0.21879389    -0.56800
C28         C  0.36497236  0.93319953  0.20740870     0.75800
O29         O  0.41872068  0.89263972  0.17694917    -0.58000
C30         C  0.44361658  0.95663528  0.22300781     0.75800
C31         C  0.40945306  0.89914130  0.27822514     0.78200
Cd32       Cd  0.41053703  0.92288113  0.21649155     1.37500
O33         O  0.37858263  0.94766565  0.21667452    -0.56800
O34         O  0.40164933  0.91828628  0.27481507    -0.55600
C35         C  0.42115635  0.90546420  0.15279470     0.78100
O36         O  0.41864618  0.89104103  0.25323055    -0.58000
O37         O  0.37257160  0.91420406  0.20176469    -0.56400
O38         O  0.44830133  0.93639184  0.22565250    -0.56400
O39         O  0.41875813  0.92578404  0.15835395    -0.55600
O40         O  0.14025595  0.95971648  0.22369711    -0.56800
C41         C  0.20053624  0.93059302  0.21313843     0.75800
O42         O  0.15099969  0.88791286  0.25398845    -0.58000
C43         C  0.12072497  0.95435946  0.23055637     0.75800
C44         C  0.14176209  0.90673765  0.15562614     0.78200
Cd45       Cd  0.15437028  0.92189451  0.22001073     1.37500
O46         O  0.18754878  0.94560822  0.22239286    -0.56800
O47         O  0.14691501  0.92650602  0.16164242    -0.55600
C48         C  0.15795661  0.89697981  0.27991625     0.78100
O49         O  0.14237822  0.89356469  0.17964927    -0.58000
O50         O  0.19192113  0.91231259  0.20575754    -0.56400
O51         O  0.11695115  0.93394469  0.23376523    -0.56400
O52         O  0.16157597  0.91745706  0.27825650    -0.55600
O53         O  0.37198531  0.52318655  0.21144018    -0.56800
C54         C  0.43789096  0.51146257  0.21934970     0.75800
O55         O  0.42194842  0.56700808  0.16200456    -0.58000
C56         C  0.35956012  0.53967088  0.20717605     0.75800
C57         C  0.40737922  0.57302894  0.26359863     0.78200
Cd58       Cd  0.40606035  0.54485428  0.20706299     1.37500
O59         O  0.41757137  0.50715602  0.21967282    -0.56800
O60         O  0.40400051  0.55251985  0.26561079    -0.55600
C61         C  0.41522795  0.55453638  0.13923349     0.78100
O62         O  0.41181805  0.58043023  0.23540580    -0.58000
O63         O  0.44321007  0.53129824  0.21409736    -0.56400
O64         O  0.36886286  0.55799982  0.20221794    -0.56400
O65         O  0.40409169  0.53796256  0.14794190    -0.55600
O66         O  0.13687024  0.51426780  0.22179210    -0.56800
C67         C  0.19463962  0.54526971  0.21576663     0.75800
O68         O  0.13223879  0.57788883  0.17252931    -0.58000
C69         C  0.11658247  0.51833307  0.22356199     0.75800
C70         C  0.14732522  0.58100796  0.27132050     0.78200
Cd71       Cd  0.14825885  0.55299393  0.21436836     1.37500
O72         O  0.18115741  0.52949363  0.21836672    -0.56800
O73         O  0.14999547  0.56037924  0.27296554    -0.55600
C74         C  0.13877679  0.56693615  0.14810872     0.78100
O75         O  0.14353661  0.58872712  0.24315469    -0.58000
O76         O  0.18658774  0.56423645  0.21149994    -0.56400
O77         O  0.11107690  0.53841356  0.22241393    -0.56400
O78         O  0.14981563  0.54984316  0.15444088    -0.55600
O79         O  0.05999680  0.88203302  0.83779353    -0.56800
C80         C  0.08399996  0.82020964  0.85239025     0.75800
O81         O  0.13188700  0.87123696  0.82389745    -0.58000
C82         C  0.06584586  0.90198153  0.84035228     0.75800
C83         C  0.10811341  0.87237843  0.91852562     0.78200
Cd84       Cd  0.09583914  0.86610642  0.85109741     1.37500
O85         O  0.06996544  0.83464418  0.84463407    -0.56800
O86         O  0.08853184  0.86903959  0.90960339    -0.55600
C87         C  0.12493246  0.86669935  0.79554734     0.78100
O88         O  0.12220745  0.87328448  0.89587041    -0.58000
O89         O  0.10279514  0.82719940  0.86022740    -0.56400
O90         O  0.08583245  0.90530898  0.84706878    -0.56400
O91         O  0.10462880  0.86288187  0.79306209    -0.55600
O92         O  0.05238717  0.59538473  0.83666819    -0.56800
C93         C  0.07749411  0.65552743  0.85235425     0.75800
O94         O  0.11712699  0.60447674  0.88927210    -0.58000
C95         C  0.05809436  0.57563037  0.83167755     0.75800
C96         C  0.11772203  0.61318331  0.78742354     0.78200
Cd97       Cd  0.08966571  0.61014015  0.84466606     1.37500
O98         O  0.06442174  0.64175588  0.83961389    -0.56800
O99         O  0.09859658  0.62111531  0.78847047    -0.55600
C100        C  0.10286829  0.60070174  0.91106088     0.78100
O101        O  0.12385191  0.60282072  0.81271249    -0.58000
O102        O  0.09572853  0.64807809  0.86195910    -0.56400
O103        O  0.07850620  0.57183589  0.83167248    -0.56400
O104        O  0.08309416  0.60100599  0.90190681    -0.55600
O105        O  0.34274627  0.64763903  0.57278261    -0.56800
C106        C  0.29561700  0.67103653  0.52920808     0.75800
O107        O  0.34049678  0.71207102  0.50507669    -0.58000
C108        C  0.36287906  0.64940808  0.57961423     0.75800
C109        C  0.36059926  0.65454495  0.46734555     0.78200
Cd110      Cd  0.34273476  0.67405830  0.52671608     1.37500
O111        O  0.30684105  0.67807768  0.55293170    -0.56800
O112        O  0.34951335  0.64371645  0.48789953    -0.55600
C113        C  0.34738038  0.72176574  0.53039721     0.78100
O114        O  0.36398032  0.67453010  0.47464006    -0.58000
O115        O  0.30608479  0.66471803  0.50431094    -0.56400
O116        O  0.37384971  0.66254691  0.56196872    -0.56400
O117        O  0.35325852  0.70952111  0.55382025    -0.55600
O118        O  0.26152702  0.67890134  0.55456957    -0.56800
C119        C  0.20581257  0.65290606  0.58806214     0.75800
O120        O  0.22896298  0.71204892  0.50868410    -0.58000
C121        C  0.27164538  0.67106144  0.53032785     0.75800
C122        C  0.20302690  0.65525204  0.47538842     0.78200
Cd123      Cd  0.22462473  0.67469688  0.53171663     1.37500
O124        O  0.22590869  0.65088242  0.58121107    -0.56800
O125        O  0.21797016  0.64527096  0.49090367    -0.55600
C126        C  0.22151092  0.72224826  0.53316024     0.78100
O127        O  0.19772391  0.67402739  0.48620294    -0.58000
O128        O  0.19460813  0.66464872  0.56878642    -0.56400
O129        O  0.26008130  0.66396908  0.50691681    -0.56400
O130        O  0.21457506  0.71057378  0.55651590    -0.55600
O131        O  0.20254699  0.79504298  0.48903855    -0.56800
C132        C  0.22173313  0.74639915  0.53476564     0.75800
O133        O  0.26190369  0.79097012  0.56512096    -0.58000
C134        C  0.20419974  0.81553465  0.48415030     0.75800
C135        C  0.20419829  0.81332492  0.59553925     0.78200
Cd136      Cd  0.22529789  0.79383495  0.53895862     1.37500
O137        O  0.23011763  0.75781405  0.51221696    -0.56800
O138        O  0.19525280  0.79802754  0.57924747    -0.55600
C139        C  0.27268467  0.79731586  0.54051758     0.78100
O140        O  0.22294764  0.81937370  0.58580406    -0.58000
O141        O  0.21426944  0.75682133  0.55908143    -0.56400
O142        O  0.21519920  0.82621108  0.50503161    -0.56400
O143        O  0.26166380  0.80300102  0.51577275    -0.55600
O144        O  0.30787257  0.79166326  0.56491922    -0.56800
C145        C  0.36664212  0.81376946  0.59260662     0.75800
O146        O  0.34196484  0.75791553  0.50880320    -0.58000
C147        C  0.29676565  0.79721851  0.54017167     0.75800
C148        C  0.36225025  0.81860349  0.48318562     0.78200
Cd149      Cd  0.34411023  0.79381460  0.53753324     1.37500
O150        O  0.34641836  0.81673536  0.58743825    -0.56800
O151        O  0.34719140  0.82614724  0.50117947    -0.55600
C152        C  0.34758633  0.74600003  0.53266369     0.78100
O153        O  0.36919726  0.79957973  0.49049068    -0.58000
O154        O  0.37653168  0.80168334  0.57222979    -0.56400
O155        O  0.30744164  0.80193485  0.51468084    -0.56400
O156        O  0.35255097  0.75603405  0.55870401    -0.55600
O157        O  0.88308786  0.44348349  0.84696020    -0.56800
C158        C  0.94801409  0.45136482  0.82887493     0.75800
O159        O  0.92808665  0.39206124  0.88524619    -0.58000
C160        C  0.86891696  0.42837307  0.84374174     0.75800
C161        C  0.91332204  0.39031643  0.78609597     0.78200
Cd162      Cd  0.91484642  0.41839873  0.84263536     1.37500
O163        O  0.92778805  0.45590539  0.82885502    -0.56800
O164        O  0.91052094  0.41092722  0.78454526    -0.55600
C165        C  0.92159738  0.40360730  0.90910945     0.78100
O166        O  0.91842013  0.38260169  0.81382993    -0.58000
O167        O  0.95281102  0.43147067  0.83475438    -0.56400
O168        O  0.87608226  0.40895602  0.84071564    -0.56400
O169        O  0.91278991  0.42182509  0.90206292    -0.55600
O170        O  0.69124446  0.44259722  0.85923106    -0.56800
C171        C  0.62601866  0.45173050  0.85060119     0.75800
O172        O  0.65429199  0.38357579  0.82545462    -0.58000
C173        C  0.70507532  0.42706164  0.85843045     0.75800
C174        C  0.65234182  0.40155935  0.92173145     0.78200
Cd175      Cd  0.65901451  0.41810848  0.85676664     1.37500
O176        O  0.64622955  0.45606935  0.84804111    -0.56800
O177        O  0.66223099  0.41945746  0.91606648    -0.55600
C178        C  0.65899858  0.39200457  0.79806047     0.78100
O179        O  0.64541323  0.39108086  0.89703378    -0.58000
O180        O  0.62109709  0.43170494  0.85515505    -0.56400
O181        O  0.69734262  0.40774843  0.85734419    -0.56400
O182        O  0.66189316  0.41264166  0.79766437    -0.55600
O183        O  0.98980459  0.33619923  0.21788845    -0.56800
C184        C  0.99929356  0.40009927  0.22253734     0.75800
O185        O  0.94029101  0.38533223  0.17307464    -0.58000
C186        C  0.97483139  0.32184665  0.21507544     0.75800
C187        C  0.93978096  0.36610256  0.27459333     0.78200
Cd188      Cd  0.96470394  0.36793646  0.21489028     1.37500
O189        O  0.00294484  0.37960052  0.22179459    -0.56800
O190        O  0.96044302  0.36682363  0.27392114    -0.55600
C191        C  0.94870566  0.37513678  0.14914647     0.78100
O192        O  0.93012670  0.36866027  0.24744608    -0.58000
O193        O  0.97940397  0.40575939  0.21972243    -0.56400
O194        O  0.95553541  0.32897063  0.21110694    -0.56400
O195        O  0.96417909  0.36207228  0.15583648    -0.55600
O196        O  0.99928044  0.14351343  0.22245184    -0.56800
C197        C  0.00749778  0.07579065  0.22795668     0.75800
O198        O  0.94357854  0.10103289  0.25103872    -0.58000
C199        C  0.98437078  0.15647635  0.21265147     0.75800
C200        C  0.96144916  0.10066082  0.15179716     0.78200
Cd201      Cd  0.97607911  0.11016388  0.21736442     1.37500
O202        O  0.01335762  0.09522418  0.22074290    -0.56800
O203        O  0.98144741  0.10323171  0.15897256    -0.55600
C204        C  0.95033870  0.11126058  0.27612400     0.78100
O205        O  0.94804035  0.10224607  0.17529882    -0.58000
O206        O  0.98717777  0.07249481  0.23172562    -0.56400
O207        O  0.96638800  0.14774441  0.20436296    -0.56400
O208        O  0.96900613  0.12018550  0.27382704    -0.55600
O209        O  0.56788148  0.33292057  0.21135910    -0.56800
C210        C  0.55793618  0.39778428  0.22324457     0.75800
O211        O  0.62323418  0.37261117  0.25495197    -0.58000
C212        C  0.58342988  0.31913177  0.21328948     0.75800
C213        C  0.61225302  0.37186215  0.15567421     0.78200
Cd214      Cd  0.59186354  0.36530636  0.21834326     1.37500
O215        O  0.55381565  0.37750054  0.22673457    -0.56800
O216        O  0.59550720  0.35990477  0.15967845    -0.55600
C217        C  0.61413180  0.36511865  0.28041647     0.78100
O218        O  0.61978933  0.38136765  0.18085622    -0.58000
O219        O  0.57762785  0.40292660  0.21747761    -0.56400
O220        O  0.60254069  0.32693609  0.21675002    -0.56400
O221        O  0.59446796  0.35897354  0.27718369    -0.55600
O222        O  0.56881366  0.13969612  0.21173224    -0.56800
C223        C  0.56197602  0.07366300  0.21603853     0.75800
O224        O  0.62087542  0.09712092  0.16570487    -0.58000
C225        C  0.58314104  0.15397220  0.20448704     0.75800
C226        C  0.62000467  0.10800267  0.26775630     0.78200
Cd227      Cd  0.59398319  0.10789211  0.20859168     1.37500
O228        O  0.55688793  0.09387277  0.21595498    -0.56800
O229        O  0.59932041  0.10912324  0.26834797    -0.55600
C230        C  0.60726533  0.09882289  0.14240236     0.78100
O231        O  0.62869363  0.10542206  0.23993697    -0.58000
O232        O  0.58216967  0.06915753  0.21342199    -0.56400
O233        O  0.60223068  0.14682847  0.19896355    -0.56400
O234        O  0.58805411  0.10443045  0.15021443    -0.55600
O235        O  0.87417809  0.02033641  0.85468393    -0.56800
C236        C  0.94258466  0.01266503  0.84612031     0.75800
O237        O  0.91256631  0.07706332  0.82247178    -0.58000
C238        C  0.86169029  0.03567266  0.86446001     0.75800
C239        C  0.91918825  0.05878371  0.92073180     0.78200
Cd240      Cd  0.90774889  0.04358815  0.85654169     1.37500
O241        O  0.92323304  0.00636254  0.85242340    -0.56800
O242        O  0.91452410  0.03887759  0.91477022    -0.55600
C243        C  0.90371570  0.06875206  0.79728245     0.78100
O244        O  0.91863141  0.07196871  0.89672717    -0.58000
O245        O  0.94551732  0.03321588  0.84319313    -0.56400
O246        O  0.87092642  0.05358197  0.87215885    -0.56400
O247        O  0.89820675  0.04869578  0.79916137    -0.55600
O248        O  0.63669863  0.00699202  0.83843112    -0.56800
C249        C  0.69673914  0.03382709  0.85685839     0.75800
O250        O  0.64909644  0.07672187  0.80681762    -0.58000
C251        C  0.61777391  0.01283102  0.82919902     0.75800
C252        C  0.63864098  0.06056629  0.90656198     0.78200
Cd253      Cd  0.65178196  0.04423488  0.84364231     1.37500
O254        O  0.68364855  0.01926390  0.84621909    -0.56800
O255        O  0.64432188  0.04083641  0.90166782    -0.55600
C256        C  0.66008392  0.06784652  0.78406536     0.78100
O257        O  0.63857541  0.07323977  0.88193235    -0.58000
O258        O  0.68876418  0.05272492  0.86217075    -0.56400
O259        O  0.61472653  0.03331314  0.82565536    -0.56400
O260        O  0.66600247  0.04815686  0.78865996    -0.55600
O261        O  0.71289438  0.31687437  0.48620429    -0.56800
C262        C  0.76603915  0.29474560  0.52705313     0.75800
O263        O  0.69943646  0.29271765  0.58503965    -0.58000
C264        C  0.69319572  0.31133938  0.48093682     0.75800
C265        C  0.71644356  0.24438283  0.53203768     0.78200
Cd266      Cd  0.71895970  0.29156893  0.53216221     1.37500
O267        O  0.75471253  0.28580804  0.50486374    -0.56800
O268        O  0.71159860  0.25559566  0.50706422    -0.55600
C269        C  0.70299911  0.31294553  0.59057420     0.78100
O270        O  0.72094891  0.25494256  0.55782288    -0.58000
O271        O  0.75564945  0.30325797  0.55049523    -0.56400
O272        O  0.68537843  0.29666232  0.49951028    -0.56400
O273        O  0.71346216  0.32320514  0.56868685    -0.55600
O274        O  0.70451998  0.17021206  0.57792026    -0.56800
C275        C  0.71794698  0.22036246  0.53059746     0.75800
O276        O  0.76145739  0.17771454  0.50175874    -0.58000
C277        C  0.70786936  0.14977976  0.58141148     0.75800
C278        C  0.70023040  0.15436582  0.47219948     0.78200
Cd279      Cd  0.72434903  0.17345540  0.52623453     1.37500
O280        O  0.72420185  0.20918493  0.55486459    -0.56800
O281        O  0.69064952  0.16415658  0.49539726    -0.55600
C282        C  0.77164816  0.16950076  0.52574004     0.78100
O283        O  0.72091239  0.15341678  0.47418150    -0.58000
O284        O  0.71406173  0.20989091  0.50456274    -0.56400
O285        O  0.71835544  0.14020401  0.55887830    -0.56400
O286        O  0.76009404  0.16251611  0.54907911    -0.55600
O287        O  0.84704175  0.14668516  0.48664493    -0.56800
C288        C  0.79566531  0.16896608  0.52729431     0.75800
O289        O  0.86441461  0.17097846  0.58511439    -0.58000
C290        C  0.86575784  0.15370896  0.47829156     0.75800
C291        C  0.84506794  0.21944581  0.53432031     0.78200
Cd292      Cd  0.84283122  0.17199014  0.53350861     1.37500
O293        O  0.80743092  0.17613430  0.50428250    -0.56800
O294        O  0.85354151  0.20844051  0.51138845    -0.55600
C295        C  0.86164946  0.15069893  0.59100960     0.78100
O296        O  0.83690268  0.20860367  0.55769440    -0.58000
O297        O  0.80563686  0.16209245  0.55236139    -0.56400
O298        O  0.87408806  0.16850104  0.49621312    -0.56400
O299        O  0.85059770  0.14014666  0.57002303    -0.55600
O300        O  0.85886708  0.29178008  0.57976601    -0.56800
C301        C  0.84366302  0.24353702  0.53321188     0.75800
O302        O  0.80049738  0.28309552  0.50587245    -0.58000
C303        C  0.85516796  0.31175271  0.58668376     0.75800
C304        C  0.85844824  0.31105392  0.47375057     0.78200
Cd305      Cd  0.83712681  0.29056858  0.52928365     1.37500
O306        O  0.83342874  0.25414381  0.55487775    -0.56800
O307        O  0.86891637  0.30576903  0.49920929    -0.55600
C308        C  0.79003133  0.29436292  0.52655980     0.78100
O309        O  0.83812484  0.30700945  0.47410224    -0.58000
O310        O  0.85168587  0.25465211  0.50999312    -0.56400
O311        O  0.84269361  0.32200698  0.56718607    -0.56400
O312        O  0.80126349  0.30453029  0.54770356    -0.55600
C313        C  0.69375469  0.08809576  0.71175334    -0.04500
C314        C  0.67880587  0.10222462  0.69612633     0.09700
C315        C  0.65776356  0.10544517  0.70939967    -0.01900
C316        C  0.65148548  0.09423495  0.73808258    -0.00100
C317        C  0.66636657  0.07981957  0.75377375    -0.03700
C318        C  0.68761783  0.07689881  0.74041341     0.03300
C319        C  0.68573535  0.11460197  0.66645835     0.10100
C320        C  0.64279748  0.12069079  0.69373572     0.36000
C321        C  0.70372334  0.06323289  0.75677981     0.39500
C322        C  0.68273914  0.10538231  0.63518047    -0.04100
C323        C  0.68981492  0.11694441  0.60728390     0.03100
C324        C  0.70010776  0.13771310  0.61063435    -0.03700
C325        C  0.70323417  0.14680621  0.64210730     0.00100
C326        C  0.69591152  0.13531973  0.66988314    -0.02500
C327        C  0.67239931  0.08397556  0.63177036     0.36800
C328        C  0.71484980  0.16750672  0.64617039     0.40400
C329        C  0.68594478  0.10771325  0.57510013     0.39500
C330        C  0.69901486  0.14465496  0.70217777     0.36400
C331        C  0.71577095  0.08569204  0.69880222     0.37100
C332        C  0.62954036  0.09725316  0.75085064     0.40400
N333        N  0.68287250  0.10045381  0.54937718    -0.37700
N334        N  0.66417494  0.06688865  0.62894870    -0.39300
N335        N  0.72420069  0.18395797  0.64951683    -0.37000
N336        N  0.70140247  0.15200245  0.72799911    -0.39400
N337        N  0.63103593  0.13300469  0.68117169    -0.39200
N338        N  0.61199907  0.09975424  0.76087132    -0.36800
N339        N  0.71682804  0.05249740  0.76955754    -0.37900
N340        N  0.73334953  0.08395262  0.68856953    -0.39500
C341        C  0.88606176  0.10765167  0.64893339    -0.04500
C342        C  0.88505455  0.11871239  0.67914961     0.09700
C343        C  0.87734570  0.14056752  0.68033422    -0.01900
C344        C  0.87013013  0.15118038  0.65155694    -0.00100
C345        C  0.87050873  0.13993793  0.62117505    -0.10900
C346        C  0.87877962  0.11812129  0.62010194     0.03300
C347        C  0.89001239  0.10647746  0.71007645     0.10100
C348        C  0.87616301  0.15183940  0.71151913     0.36000
C349        C  0.88008680  0.10635166  0.58934978     0.39500
C350        C  0.91070863  0.10819487  0.72530302    -0.04100
C351        C  0.91517095  0.09622793  0.75416463     0.03100
C352        C  0.89916645  0.08188120  0.76733943    -0.03700
C353        C  0.87845325  0.08017329  0.75186606     0.00100
C354        C  0.87382884  0.09269434  0.72373754    -0.02500
C355        C  0.92753666  0.12198148  0.71091737     0.36800
C356        C  0.86157224  0.06587962  0.76514594     0.40400
C357        C  0.93646376  0.09820252  0.76966779     0.39500
C358        C  0.85228503  0.09155392  0.70877022     0.36400
C359        C  0.89429611  0.08524607  0.64780551     0.37100
C360        C  0.86120610  0.17326379  0.65376583     0.40400
N361        N  0.95343323  0.09983734  0.78210432    -0.37700
N362        N  0.94106422  0.13287941  0.69946963    -0.39300
N363        N  0.84810625  0.05439894  0.77546138    -0.37000
N364        N  0.83512881  0.09080619  0.69674124    -0.39400
N365        N  0.87524770  0.16072612  0.73646153    -0.39200
N366        N  0.85405243  0.19086826  0.65565096    -0.36800
N367        N  0.88116674  0.09681434  0.56495393    -0.37900
N368        N  0.90087117  0.06737583  0.64724132    -0.39500
C369        C  0.75418575  0.03719372  0.89230104    -0.04500
C370        C  0.76664284  0.02794233  0.86676433     0.09700
C371        C  0.75593406  0.01842801  0.83968345    -0.01900
C372        C  0.73286723  0.01865933  0.83769016    -0.00100
C373        C  0.72044090  0.02950745  0.86198237    -0.03700
C374        C  0.73115951  0.03809751  0.88984720     0.03300
C375        C  0.79107249  0.02975346  0.86709082     0.10100
C376        C  0.76877859  0.00944261  0.81305167     0.36000
C377        C  0.71843535  0.04750472  0.91631315     0.39500
C378        C  0.80421976  0.01140280  0.87492267    -0.04100
C379        C  0.82730273  0.01317415  0.87424392     0.03100
C380        C  0.83737728  0.03342111  0.86575064    -0.03700
C381        C  0.82399434  0.05174049  0.85763608     0.00100
C382        C  0.80101105  0.04981556  0.85815471    -0.02500
C383        C  0.79391411  0.99059402  0.88318796     0.36800
C384        C  0.83368368  0.07245619  0.84723895     0.40400
C385        C  0.84051987  0.99419554  0.88284738     0.39500
C386        C  0.78747809  0.06832907  0.84831907     0.36400
C387        C  0.76513656  0.04631519  0.92070422     0.37100
C388        C  0.72211223  0.00841846  0.80997078     0.40400
N389        N  0.85093508  0.97895067  0.88967083    -0.37700
N390        N  0.78568090  0.97395309  0.88952385    -0.39300
N391        N  0.84135643  0.08896098  0.83886558    -0.37000
N392        N  0.77669540  0.08303723  0.84030178    -0.39400
N393        N  0.77912477  0.00244614  0.79180156    -0.39200
N394        N  0.71361287  0.00009463  0.78790742    -0.36800
N395        N  0.70817563  0.05487841  0.93738495    -0.37900
N396        N  0.77381528  0.05363686  0.94337984    -0.39500
C397        C  0.64013521  0.09205168  0.98682873    -0.04500
C398        C  0.62599438  0.07910308  0.00620801     0.09700
C399        C  0.61483565  0.06107738  0.99217514    -0.01900
C400        C  0.61821804  0.05564205  0.95912889    -0.00100
C401        C  0.63290666  0.06815104  0.93990020    -0.03700
C402        C  0.64362272  0.08658162  0.95375465     0.03300
C403        C  0.62219508  0.08482594  0.04125009     0.10100
C404        C  0.59991603  0.04808171  0.01192419     0.36000
C405        C  0.65913086  0.09921752  0.93452688     0.39500
C406        C  0.60716572  0.10152178  0.04929660    -0.04100
C407        C  0.60274602  0.10648191  0.08222908     0.03100
C408        C  0.61314776  0.09446748  0.10762956    -0.03700
C409        C  0.62829086  0.07768834  0.09936558     0.00100
C410        C  0.63279572  0.07294768  0.06629376    -0.02500
C411        C  0.59576028  0.11319373  0.02344354     0.36800
C412        C  0.63844879  0.06443469  0.12466645     0.40400
C413        C  0.58751758  0.12413003  0.08964527     0.39500
C414        C  0.64787797  0.05538686  0.05790869     0.36400
C415        C  0.65137641  0.11077425  0.00116857     0.37100
C416        C  0.60631751  0.03731100  0.94479641     0.40400
N417        N  0.57526518  0.13814498  0.09538028    -0.37700
N418        N  0.58666967  0.12235356  0.00270934    -0.39300
N419        N  0.64651287  0.05378523  0.14477605    -0.37000
N420        N  0.65979374  0.04127617  0.05121270    -0.39400
N421        N  0.58810224  0.03773796  0.02783842    -0.39200
N422        N  0.59680372  0.02271128  0.93336834    -0.36800
N423        N  0.67156662  0.10920642  0.91917133    -0.37900
N424        N  0.66030318  0.12573345  0.01262042    -0.39500
C425        C  0.63916479  0.10439422  0.35644473    -0.04500
C426        C  0.65616997  0.12014689  0.35666791     0.09700
C427        C  0.66244873  0.13045937  0.32732486    -0.01900
C428        C  0.65099552  0.12603032  0.29815258    -0.00100
C429        C  0.63334013  0.11087104  0.29795304    -0.03700
C430        C  0.62764436  0.09986152  0.32723449     0.03300
C431        C  0.66636240  0.12747817  0.38810297     0.10100
C432        C  0.68044667  0.14611323  0.32749465     0.36000
C433        C  0.60990738  0.08392896  0.32742199     0.39500
C434        C  0.68552491  0.11732097  0.39990966    -0.04100
C435        C  0.69600873  0.12548724  0.42817030     0.03100
C436        C  0.68798130  0.14462692  0.44402645    -0.03700
C437        C  0.66854513  0.15464551  0.43214512     0.00100
C438        C  0.65764820  0.14584554  0.40466072    -0.02500
C439        C  0.69480295  0.09881315  0.38234383     0.36800
C440        C  0.66018003  0.17467681  0.44690585     0.40400
C441        C  0.71477080  0.11376700  0.44124114     0.39500
C442        C  0.63771517  0.15606979  0.39264530     0.36400
C443        C  0.63348908  0.09303804  0.38641538     0.37100
C444        C  0.65638296  0.13842397  0.26896073     0.40400
N445        N  0.72966672  0.10436658  0.45181419    -0.37700
N446        N  0.70232935  0.08417458  0.36819135    -0.39300
N447        N  0.65340421  0.19070783  0.45834823    -0.37000
N448        N  0.62180224  0.16411338  0.38293970    -0.39400
N449        N  0.69486889  0.15850798  0.32789199    -0.39200
N450        N  0.66057758  0.14848558  0.24580651    -0.36800
N451        N  0.59572419  0.07124974  0.32768021    -0.37900
N452        N  0.62913839  0.08392931  0.41036031    -0.39500
C453        C  0.67087049  0.35362135  0.42067770    -0.04500
C454        C  0.65749855  0.34033757  0.40068993     0.09700
C455        C  0.65456346  0.31787064  0.40828757    -0.01900
C456        C  0.66575775  0.30843318  0.43496475    -0.00100
C457        C  0.68008810  0.32147923  0.45420084    -0.03700
C458        C  0.68216541  0.34425841  0.44731306     0.03300
C459        C  0.64710227  0.34969106  0.37072882     0.10100
C460        C  0.64016428  0.30441047  0.38826524     0.36000
C461        C  0.69541847  0.35829714  0.46816058     0.39500
C462        C  0.65901958  0.35045316  0.34132401    -0.04100
C463        C  0.64866773  0.35696324  0.31211420     0.03100
C464        C  0.62604883  0.36233293  0.31198995    -0.03700
C465        C  0.61450636  0.36276787  0.34205948     0.00100
C466        C  0.62508559  0.35656946  0.37128159    -0.02500
C467        C  0.68181097  0.34365476  0.34093611     0.36800
C468        C  0.59172171  0.36953790  0.34323085     0.40400
C469        C  0.66123246  0.35691240  0.28206084     0.39500
C470        C  0.61326101  0.35682898  0.40198462     0.36400
C471        C  0.67285579  0.37698032  0.41385098     0.37100
C472        C  0.66301265  0.28512272  0.44170250     0.40400
N473        N  0.67131620  0.35691750  0.25815493    -0.37700
N474        N  0.69996770  0.33818966  0.34052850    -0.39300
N475        N  0.57353057  0.37484839  0.34440201    -0.37000
N476        N  0.60392681  0.35705033  0.42655052    -0.39400
N477        N  0.62860723  0.29375941  0.37233305    -0.39200
N478        N  0.66069952  0.26653369  0.44701409    -0.36800
N479        N  0.70594382  0.36948046  0.48485574    -0.37900
N480        N  0.67435021  0.39564064  0.40849130    -0.39500
C481        C  0.56151726  0.26265487  0.18848325    -0.04500
C482        C  0.57393733  0.24873664  0.20894942     0.09700
C483        C  0.58874514  0.25798122  0.23162080    -0.01900
C484        C  0.59153069  0.28096772  0.23336477    -0.00100
C485        C  0.57964381  0.29496946  0.21215606    -0.03700
C486        C  0.56458046  0.28570052  0.18971357     0.03300
C487        C  0.57311327  0.22426156  0.20493939     0.10100
C488        C  0.60150308  0.24373753  0.25281184     0.36000
C489        C  0.55329856  0.29967167  0.16639918     0.39500
C490        C  0.58494305  0.21429767  0.17934854    -0.04100
C491        C  0.58754455  0.19124466  0.17849133     0.03100
C492        C  0.57814327  0.17792847  0.20315525    -0.03700
C493        C  0.56510912  0.18786614  0.22762862     0.00100
C494        C  0.56268484  0.21097808  0.22854321    -0.02500
C495        C  0.59509235  0.22791250  0.15445520     0.36800
C496        C  0.55528991  0.17452370  0.25311891     0.40400
C497        C  0.60003724  0.18131581  0.15221651     0.39500
C498        C  0.55017576  0.22121962  0.25450476     0.36400
C499        C  0.54585300  0.25318324  0.16581080     0.37100
C500        C  0.60667715  0.29013341  0.25716424     0.40400
N501        N  0.61009025  0.17345292  0.13130985    -0.37700
N502        N  0.60305355  0.23883766  0.13458299    -0.39300
N503        N  0.54750556  0.16382245  0.27341349    -0.37000
N504        N  0.54028491  0.22938676  0.27532271    -0.39400
N505        N  0.61162255  0.23239967  0.26978169    -0.39200
N506        N  0.61882193  0.29749126  0.27597139    -0.36800
N507        N  0.54449094  0.31081339  0.14760634    -0.37900
N508        N  0.53331768  0.24566169  0.14773886    -0.39500
C509        C  0.92906124  0.07782581  0.07931990    -0.04500
C510        C  0.94123967  0.08600586  0.05276014     0.09700
C511        C  0.95972327  0.09938512  0.05846315    -0.01900
C512        C  0.96604897  0.10464442  0.09067622    -0.00100
C513        C  0.95423817  0.09594704  0.11762239    -0.03700
C514        C  0.93571359  0.08240387  0.11160892     0.03300
C515        C  0.93550272  0.07923777  0.01872783     0.10100
C516        C  0.97242323  0.10741196  0.03098041     0.36000
C517        C  0.92408443  0.07210892  0.13845382     0.39500
C518        C  0.92112906  0.09208490  0.99965875    -0.04100
C519        C  0.91600907  0.08564248  0.96742360     0.03100
C520        C  0.92502127  0.06608577  0.95427446    -0.03700
C521        C  0.93934966  0.05319961  0.97363275     0.00100
C522        C  0.94471957  0.05991211  0.00557269    -0.02500
C523        C  0.91154727  0.11187970  0.01334787     0.36800
C524        C  0.94916265  0.03331716  0.96052053     0.40400
C525        C  0.90090112  0.09881204  0.94826411     0.39500
C526        C  0.96003325  0.04710029  0.02492031     0.36400
C527        C  0.90981968  0.06435126  0.07329711     0.37100
C528        C  0.98451537  0.11935445  0.09575467     0.40400
N529        N  0.88887159  0.10934156  0.93298842    -0.37700
N530        N  0.90385962  0.12766464  0.02424832    -0.39300
N531        N  0.95703601  0.01743265  0.95025003    -0.37000
N532        N  0.97233230  0.03701873  0.04037235    -0.39400
N533        N  0.98251703  0.11364607  0.00893432    -0.39200
N534        N  0.99923745  0.13111100  0.09965098    -0.36800
N535        N  0.91489354  0.06376316  0.15983871    -0.37900
N536        N  0.89442033  0.05368844  0.06846641    -0.39500
C537        C  0.88852140  0.11505986  0.41299009    -0.04500
C538        C  0.89999369  0.13001946  0.39293425     0.09700
C539        C  0.89987335  0.15267550  0.40050715    -0.01900
C540        C  0.88841694  0.16040914  0.42803648    -0.00100
C541        C  0.87724376  0.14543554  0.44868453    -0.03700
C542        C  0.87709698  0.12273068  0.44071943     0.03300
C543        C  0.91243057  0.12217760  0.36372522     0.10100
C544        C  0.91165781  0.16808038  0.37982282     0.36000
C545        C  0.86559156  0.10711085  0.46135302     0.39500
C546        C  0.90172333  0.11972992  0.33343145    -0.04100
C547        C  0.91396058  0.11566537  0.30484107     0.03100
C548        C  0.93705847  0.11337276  0.30653432    -0.03700
C549        C  0.94757105  0.11475938  0.33737035     0.00100
C550        C  0.93531921  0.11939093  0.36569949    -0.02500
C551        C  0.87811507  0.12228814  0.33151124     0.36800
C552        C  0.97108583  0.11160575  0.34020287     0.40400
C553        C  0.90283073  0.11554387  0.27353449     0.39500
C554        C  0.94634005  0.12209371  0.39684745     0.36400
C555        C  0.88876492  0.09174980  0.40530993     0.37100
C556        C  0.88732192  0.18393998  0.43408783     0.40400
N557        N  0.89395020  0.11565412  0.24854466    -0.37700
N558        N  0.85929137  0.12425180  0.32990160    -0.39300
N559        N  0.98982730  0.10918527  0.34249536    -0.37000
N560        N  0.95514133  0.12441851  0.42165650    -0.39400
N561        N  0.92114991  0.18028387  0.36338512    -0.39200
N562        N  0.88634498  0.20273086  0.43870975    -0.36800
N563        N  0.85633550  0.09468196  0.47772717    -0.37900
N564        N  0.88893682  0.07311529  0.39929436    -0.39500
C565        C  0.87408100  0.32425907  0.38561806    -0.04500
C566        C  0.89087486  0.33995488  0.39009529     0.09700
C567        C  0.89674956  0.34653564  0.42193185    -0.01900
C568        C  0.88641144  0.33695969  0.44927997    -0.00100
C569        C  0.86940103  0.32128572  0.44493334    -0.03700
C570        C  0.86310361  0.31526098  0.41283108     0.03300
C571        C  0.90379296  0.34789306  0.36135542     0.10100
C572        C  0.91365021  0.36311832  0.42650828     0.36000
C573        C  0.84594688  0.29904583  0.40753399     0.39500
C574        C  0.89543217  0.36433793  0.34040707    -0.04100
C575        C  0.90744297  0.37093804  0.31257864     0.03100
C576        C  0.92779886  0.36094291  0.30535179    -0.03700
C577        C  0.93626632  0.34471067  0.32686602     0.00100
C578        C  0.92423744  0.33818849  0.35453682    -0.02500
C579        C  0.87428575  0.37416043  0.34722490     0.36800
C580        C  0.95693252  0.33383099  0.31999678     0.40400
C581        C  0.89908755  0.38843436  0.29192744     0.39500
C582        C  0.93253403  0.32078049  0.37548240     0.36400
C583        C  0.86871054  0.31678959  0.35294234     0.37100
C584        C  0.89326268  0.34346354  0.48180426     0.40400
N585        N  0.89249118  0.40247272  0.27556010    -0.37700
N586        N  0.85733560  0.38191899  0.35248171    -0.39300
N587        N  0.97340280  0.32511243  0.31461819    -0.37000
N588        N  0.93908246  0.30686102  0.39211213    -0.39400
N589        N  0.92705100  0.37637087  0.43020002    -0.39200
N590        N  0.89889958  0.34857833  0.50772232    -0.36800
N591        N  0.83223512  0.28619850  0.40320337    -0.37900
N592        N  0.86457508  0.31079857  0.32680884    -0.39500
C593        C  0.99795323  0.21524677  0.23831034    -0.04500
C594        C  0.98780929  0.22733313  0.21312842     0.09700
C595        C  0.97793770  0.21622841  0.18672214    -0.01900
C596        C  0.97776488  0.19304631  0.18578328    -0.00100
C597        C  0.98724284  0.18077303  0.21158324    -0.03700
C598        C  0.99759905  0.19201580  0.23769536     0.03300
C599        C  0.98576859  0.25175136  0.21570318     0.10100
C600        C  0.96715732  0.22873246  0.16114211     0.36000
C601        C  0.00647002  0.17985830  0.26517929     0.39500
C602        C  0.00051893  0.26568396  0.19914796    -0.04100
C603        C  0.99769264  0.28873462  0.20025923     0.03100
C604        C  0.97938385  0.29784312  0.21659739    -0.03700
C605        C  0.96499097  0.28377034  0.23395543     0.00100
C606        C  0.96843075  0.26084961  0.23391498    -0.02500
C607        C  0.01834369  0.25618753  0.18048277     0.36800
C608        C  0.94686060  0.29280879  0.25254522     0.40400
C609        C  0.01341370  0.30291677  0.18401511     0.39500
C610        C  0.95411342  0.24648513  0.25256747     0.36400
C611        C  0.00787204  0.22683673  0.26556547     0.37100
C612        C  0.96757116  0.18188404  0.15832182     0.40400
N613        N  0.02613352  0.31420596  0.17137433    -0.37700
N614        N  0.03245411  0.24854304  0.16544080    -0.39300
N615        N  0.93235649  0.29995791  0.26729699    -0.37000
N616        N  0.94292610  0.23491325  0.26761683    -0.39400
N617        N  0.95848030  0.23871863  0.14085378    -0.39200
N618        N  0.95934929  0.17294324  0.13655220    -0.36800
N619        N  0.01342261  0.17022395  0.28724421    -0.37900
N620        N  0.01564508  0.23619591  0.28730673    -0.39500
C621        C  0.62466384  0.37833453  0.99766298    -0.04500
C622        C  0.64084939  0.38218927  0.02165051     0.09700
C623        C  0.66150084  0.39050046  0.01232302    -0.01900
C624        C  0.66537599  0.39665482  0.97965660    -0.00100
C625        C  0.64886089  0.39362482  0.95570072    -0.03700
C626        C  0.62868683  0.38385292  0.96477481     0.03300
C627        C  0.63546804  0.37935545  0.05704811     0.10100
C628        C  0.67873599  0.39277602  0.03653188     0.36000
C629        C  0.61145886  0.38065247  0.94077481     0.39500
C630        C  0.63311264  0.35814416  0.07065835    -0.04100
C631        C  0.62618198  0.35571284  0.10328682     0.03100
C632        C  0.62212488  0.37450899  0.12280949    -0.03700
C633        C  0.62567729  0.39572935  0.10967463     0.00100
C634        C  0.63183230  0.39813386  0.07669678    -0.02500
C635        C  0.63725533  0.33882177  0.05077171     0.36800
C636        C  0.62187500  0.41517104  0.12945395     0.40400
C637        C  0.62318595  0.33379703  0.11675336     0.39500
C638        C  0.63329716  0.41996201  0.06238807     0.36400
C639        C  0.60359114  0.36920542  0.00698504     0.37100
C640        C  0.68637498  0.40625393  0.97093427     0.40400
N641        N  0.62069233  0.31633362  0.12747264    -0.37700
N642        N  0.64039721  0.32340477  0.03484406    -0.39300
N643        N  0.61894970  0.43075576  0.14511484    -0.37000
N644        N  0.63433788  0.43729883  0.05074101    -0.39400
N645        N  0.69249586  0.39445451  0.05583686    -0.39200
N646        N  0.70303171  0.41412491  0.96406949    -0.36800
N647        N  0.59769308  0.37810549  0.92168197    -0.37900
N648        N  0.58683907  0.36176556  0.01433911    -0.39500
C649        C  0.67977297  0.34701233  0.74112160    -0.04500
C650        C  0.67436453  0.35590887  0.71039213     0.09700
C651        C  0.66211252  0.37554284  0.70852021    -0.01900
C652        C  0.65576108  0.38657859  0.73728408    -0.00100
C653        C  0.66230606  0.37845172  0.76816968    -0.03700
C654        C  0.67406071  0.35835200  0.76993319     0.03300
C655        C  0.68183021  0.34472320  0.67984785     0.10100
C656        C  0.65635316  0.38453346  0.67685339     0.36000
C657        C  0.68149305  0.34987982  0.80115410     0.39500
C658        C  0.66936794  0.32743426  0.66636169    -0.04100
C659        C  0.67600408  0.31728300  0.63701180     0.03100
C660        C  0.69558406  0.32402782  0.62123239    -0.03700
C661        C  0.70822634  0.34126761  0.63528035     0.00100
C662        C  0.70130131  0.35155545  0.66438207    -0.02500
C663        C  0.64971328  0.32003770  0.68300109     0.36800
C664        C  0.72875298  0.34815757  0.62054947     0.40400
C665        C  0.66211093  0.30046939  0.62264333     0.39500
C666        C  0.71439012  0.36900682  0.67884473     0.36400
C667        C  0.69163565  0.32634715  0.74295797     0.37100
C668        C  0.64211847  0.40608065  0.73502129     0.40400
N669        N  0.65090048  0.28712420  0.61124290    -0.37700
N670        N  0.63416618  0.31413333  0.69658287    -0.39300
N671        N  0.74511582  0.35373426  0.60890486    -0.37000
N672        N  0.72482572  0.38288903  0.69046273    -0.39400
N673        N  0.65189454  0.39171360  0.65154556    -0.39200
N674        N  0.63110574  0.42153812  0.73319945    -0.36800
N675        N  0.68754456  0.34312934  0.82599184    -0.37900
N676        N  0.70097812  0.30979732  0.74432497    -0.39500
C677        C  0.93485117  0.40254581  0.06792722    -0.04500
C678        C  0.93247066  0.38406663  0.04723919     0.09700
C679        C  0.93377769  0.36268659  0.06060664    -0.01900
C680        C  0.93843911  0.35978218  0.09410174    -0.00100
C681        C  0.94130961  0.37828287  0.11475999    -0.03700
C682        C  0.93876454  0.39968152  0.10166290     0.03300
C683        C  0.92915526  0.38723694  0.01120862     0.10100
C684        C  0.93056471  0.34364943  0.03972298     0.36000
C685        C  0.94112235  0.41884300  0.12254075     0.39500
C686        C  0.94670902  0.38384354  0.98930651    -0.04100
C687        C  0.94399081  0.38804899  0.95561011     0.03100
C688        C  0.92389922  0.39644000  0.94372844    -0.03700
C689        C  0.90613089  0.39913134  0.96556064     0.00100
C690        C  0.90871353  0.39437299  0.99905756    -0.02500
C691        C  0.96784030  0.37680224  0.00171591     0.36800
C692        C  0.88498362  0.40645398  0.95345929     0.40400
C693        C  0.96218903  0.38456885  0.93346755     0.39500
C694        C  0.89034910  0.39702178  0.02115496     0.36400
C695        C  0.93420617  0.42454135  0.05413027     0.37100
C696        C  0.94001892  0.33767371  0.10737743     0.40400
N697        N  0.97667408  0.38169235  0.91577314    -0.37700
N698        N  0.98469130  0.37125415  0.01174146    -0.39300
N699        N  0.86817096  0.41230092  0.94366089    -0.37000
N700        N  0.87566934  0.39918088  0.03870844    -0.39400
N701        N  0.92803588  0.32846890  0.02304825    -0.39200
N702        N  0.94133250  0.32006352  0.11803634    -0.36800
N703        N  0.94289454  0.43412478  0.13922587    -0.37900
N704        N  0.93381658  0.44203890  0.04293154    -0.39500
C705        C  0.90810495  0.37274694  0.69741433    -0.04500
C706        C  0.89494419  0.35373086  0.70031985     0.09700
C707        C  0.89046803  0.34500109  0.73149988    -0.01900
C708        C  0.89736097  0.35633077  0.75979545    -0.00100
C709        C  0.90951001  0.37614111  0.75697846    -0.03700
C710        C  0.91572836  0.38366141  0.72564373     0.03300
C711        C  0.88497157  0.34332204  0.67066911     0.10100
C712        C  0.87838728  0.32448690  0.73435113     0.36000
C713        C  0.93021878  0.40252574  0.72244815     0.39500
C714        C  0.89653432  0.32713961  0.65312020    -0.04100
C715        C  0.88688467  0.31696880  0.62564807     0.03100
C716        C  0.86529642  0.32257183  0.61582293    -0.03700
C717        C  0.85362875  0.33866050  0.63388813     0.00100
C718        C  0.86360879  0.34921029  0.66082253    -0.02500
C719        C  0.91839979  0.32095132  0.66349234     0.36800
C720        C  0.83102433  0.34371164  0.62589108     0.40400
C721        C  0.89958406  0.30112898  0.60707428     0.39500
C722        C  0.85189386  0.36620747  0.67859289     0.36400
C723        C  0.91337643  0.38135397  0.66537069     0.37100
C724        C  0.89070664  0.34824953  0.79158976     0.40400
N725        N  0.90969733  0.28851460  0.59226592    -0.37700
N726        N  0.93584262  0.31599124  0.67183142    -0.39300
N727        N  0.81291744  0.34768342  0.61978537    -0.37000
N728        N  0.84268808  0.37983742  0.69273312    -0.39400
N729        N  0.86891407  0.30802949  0.73649489    -0.39200
N730        N  0.88530354  0.34182999  0.81694736    -0.36800
N731        N  0.94191096  0.41746146  0.72010199    -0.37900
N732        N  0.91759545  0.38831991  0.63983950    -0.39500
C733        C  0.81253212  0.44872055  0.86912247    -0.04500
C734        C  0.79911915  0.43716468  0.84695722     0.09700
C735        C  0.80861664  0.42474967  0.82163003    -0.01900
C736        C  0.83152474  0.42244282  0.81996589    -0.00100
C737        C  0.84505816  0.43288681  0.84342483    -0.03700
C738        C  0.83551335  0.44671087  0.86729577     0.03300
C739        C  0.77501735  0.43598016  0.85225237     0.10100
C740        C  0.79466431  0.41404266  0.79766753     0.36000
C741        C  0.84916203  0.45796673  0.89103967     0.39500
C742        C  0.76096183  0.45172047  0.83823896    -0.04100
C743        C  0.73805558  0.44934758  0.84120073     0.03100
C744        C  0.72913632  0.43101144  0.85809085    -0.03700
C745        C  0.74347975  0.41561735  0.87296440     0.00100
C746        C  0.76630177  0.41816918  0.87003855    -0.02500
C747        C  0.77016434  0.46991400  0.81981676     0.36800
C748        C  0.73495205  0.39700069  0.89125821     0.40400
C749        C  0.72383480  0.46516282  0.82520328     0.39500
C750        C  0.78098304  0.40213909  0.88466852     0.36400
C751        C  0.80253430  0.46211750  0.89434053     0.37100
C752        C  0.84111526  0.40941457  0.79392615     0.40400
N753        N  0.71253048  0.47778197  0.81237301    -0.37700
N754        N  0.77758416  0.48435864  0.80506166    -0.39300
N755        N  0.72825735  0.38203386  0.90565009    -0.37000
N756        N  0.79281163  0.38942082  0.89615123    -0.39400
N757        N  0.78343260  0.40565004  0.77856645    -0.39200
N758        N  0.84873731  0.39901968  0.77316345    -0.36800
N759        N  0.86003074  0.46699786  0.90996645    -0.37900
N760        N  0.79439289  0.47280531  0.91431412    -0.39500
C761        C  0.97655384  0.50400111  0.79955986    -0.04500
C762        C  0.99594899  0.50352360  0.81823362     0.09700
C763        C  0.00056434  0.48510023  0.83794037    -0.01900
C764        C  0.98540084  0.46763462  0.84032877    -0.00100
C765        C  0.96514955  0.46861656  0.82334037    -0.03700
C766        C  0.96110884  0.48670765  0.80219404     0.03300
C767        C  0.01089603  0.52307772  0.81947624     0.10100
C768        C  0.02080665  0.48452422  0.85656204     0.36000
C769        C  0.94128159  0.48749504  0.78263778     0.39500
C770        C  0.00822756  0.53877441  0.84452577    -0.04100
C771        C  0.02361903  0.55592085  0.84847554     0.03100
C772        C  0.04162643  0.55778767  0.82688744    -0.03700
C773        C  0.04405577  0.54221001  0.80143676     0.00100
C774        C  0.02882047  0.52481204  0.79794246    -0.02500
C775        C  0.99000454  0.53667249  0.86706394     0.36800
C776        C  0.06209786  0.54415184  0.77860197     0.40400
C777        C  0.02164921  0.57069287  0.87616177     0.39500
C778        C  0.03188713  0.50826304  0.77284855     0.36400
C779        C  0.97249685  0.52242077  0.77782652     0.37100
C780        C  0.99050335  0.44915050  0.86144434     0.40400
N781        N  0.02010871  0.58227712  0.89848023    -0.37700
N782        N  0.97547330  0.53480347  0.88497612    -0.39300
N783        N  0.07647198  0.54569551  0.76034318    -0.37000
N784        N  0.03435653  0.49494428  0.75298130    -0.39400
N785        N  0.03696988  0.48427850  0.87135474    -0.39200
N786        N  0.99473345  0.43440381  0.87819247    -0.36800
N787        N  0.92550699  0.48821434  0.76695412    -0.37900
N788        N  0.96937115  0.53705576  0.76033861    -0.39500
C789        C  0.16072680  0.60312216  0.72075132    -0.04500
C790        C  0.15983967  0.62311801  0.70330846     0.09700
C791        C  0.14511595  0.63968676  0.71315540    -0.01900
C792        C  0.13128769  0.63639021  0.74027226    -0.00100
C793        C  0.13219802  0.61640922  0.75827243    -0.03700
C794        C  0.14703572  0.59977111  0.74818749     0.03300
C795        C  0.17358461  0.62683578  0.67351222     0.10100
C796        C  0.14420992  0.66023765  0.69501989     0.36000
C797        C  0.14764876  0.57878536  0.76507928     0.39500
C798        C  0.16410966  0.62409864  0.64237025    -0.04100
C799        C  0.17495378  0.63203058  0.61437613     0.03100
C800        C  0.19569541  0.64230072  0.61717333    -0.03700
C801        C  0.20594602  0.64349701  0.64818090     0.00100
C802        C  0.19477275  0.63600144  0.67629573    -0.02500
C803        C  0.14274981  0.61378732  0.63936676     0.36800
C804        C  0.22735406  0.65367578  0.65159636     0.40400
C805        C  0.16457878  0.62977061  0.58265109     0.39500
C806        C  0.20458510  0.63867632  0.70832363     0.36400
C807        C  0.17543585  0.58585987  0.70998341     0.37100
C808        C  0.11646543  0.65394263  0.74970908     0.40400
N809        N  0.15630019  0.62810228  0.55734950    -0.37700
N810        N  0.12571501  0.60553035  0.63702576    -0.39300
N811        N  0.24443994  0.66177675  0.65442374    -0.37000
N812        N  0.21236973  0.64084744  0.73388939    -0.39400
N813        N  0.14364218  0.67649440  0.68030499    -0.39200
N814        N  0.10465643  0.66804868  0.75684556    -0.36800
N815        N  0.14811662  0.56201310  0.77847657    -0.37900
N816        N  0.18713522  0.57205578  0.70132920    -0.39500
C817        C  0.99492334  0.98475296  0.81673749    -0.04500
C818        C  0.99687394  0.96746200  0.83948254     0.09700
C819        C  0.98097095  0.96477698  0.86404753    -0.01900
C820        C  0.96310629  0.97937792  0.86598689    -0.00100
C821        C  0.96105150  0.99684741  0.84326881    -0.03700
C822        C  0.97712392  0.99948908  0.81864794     0.03300
C823        C  0.01562225  0.95178938  0.83747060     0.10100
C824        C  0.98310639  0.94692035  0.88739228     0.36000
C825        C  0.97514019  0.01695427  0.79465490     0.39500
C826        C  0.03419535  0.95485327  0.85741271    -0.04100
C827        C  0.05132659  0.93928811  0.85703880     0.03100
C828        C  0.04977271  0.92031314  0.83692797    -0.03700
C829        C  0.03167926  0.91813919  0.81543423     0.00100
C830        C  0.01446172  0.93356306  0.81629365    -0.02500
C831        C  0.03516707  0.97361566  0.87933648     0.36800
C832        C  0.03100716  0.90049651  0.79156160     0.40400
C833        C  0.07012760  0.94267615  0.87818000     0.39500
C834        C  0.99506272  0.93028515  0.79633538     0.36400
C835        C  0.01124414  0.98721508  0.79126483     0.37100
C836        C  0.94732905  0.97676012  0.89218058     0.40400
N837        N  0.08514774  0.94558893  0.89492052    -0.37700
N838        N  0.03576135  0.98849515  0.89698212    -0.39300
N839        N  0.03046464  0.88663217  0.77218032    -0.37000
N840        N  0.97944121  0.92769085  0.78075223    -0.39400
N841        N  0.98491943  0.93267073  0.90595292    -0.39200
N842        N  0.93481315  0.97457047  0.91313353    -0.36800
N843        N  0.97366844  0.03084261  0.77543023    -0.37900
N844        N  0.02427284  0.98902850  0.77093830    -0.39500
C845        C  0.18677938  0.85612446  0.65911039    -0.04500
C846        C  0.17371144  0.84333079  0.68018485     0.09700
C847        C  0.17006782  0.82088686  0.67309879    -0.01900
C848        C  0.17988125  0.81104443  0.64554841    -0.00100
C849        C  0.19335559  0.82371484  0.62445826    -0.03700
C850        C  0.19639196  0.84645453  0.63122495     0.03300
C851        C  0.16342145  0.85328744  0.70989688     0.10100
C852        C  0.15597103  0.80793859  0.69429472     0.36000
C853        C  0.20857552  0.86031950  0.60876661     0.39500
C854        C  0.14374019  0.86530337  0.70717473    -0.04100
C855        C  0.13209907  0.87140869  0.73547804     0.03100
C856        C  0.13964053  0.86483597  0.76667491    -0.03700
C857        C  0.16026780  0.85429413  0.76940902     0.00100
C858        C  0.17219934  0.84882607  0.74105750    -0.02500
C859        C  0.13505056  0.87060952  0.67518334     0.36800
C860        C  0.16864424  0.84769994  0.80106087     0.40400
C861        C  0.11234496  0.88456432  0.73240438     0.39500
C862        C  0.19322995  0.83783205  0.74379805     0.36400
C863        C  0.19016504  0.87929995  0.66609575     0.37100
C864        C  0.17631556  0.78777028  0.63955138     0.40400
N865        N  0.09670037  0.89517183  0.72996760    -0.37700
N866        N  0.12811581  0.87484798  0.64963382    -0.39300
N867        N  0.17536602  0.84235160  0.82628813    -0.37000
N868        N  0.21001849  0.82912716  0.74588838    -0.39400
N869        N  0.14469994  0.79781881  0.71132630    -0.39200
N870        N  0.17328070  0.76918487  0.63496347    -0.36800
N871        N  0.21814345  0.87143163  0.59081575    -0.37900
N872        N  0.19277907  0.89782285  0.67164218    -0.39500
C873        C  0.06111438  0.71382262  0.82882940    -0.04500
C874        C  0.06920662  0.72581312  0.85572803     0.09700
C875        C  0.07714155  0.71454993  0.88337165    -0.01900
C876        C  0.07890447  0.69141115  0.88295342    -0.00100
C877        C  0.07232251  0.67937231  0.85499296    -0.03700
C878        C  0.06253357  0.69063659  0.82846699     0.03300
C879        C  0.07202161  0.75019312  0.85338767     0.10100
C880        C  0.08400100  0.72690959  0.91193265     0.36000
C881        C  0.05521957  0.67863358  0.79982177     0.39500
C882        C  0.05600727  0.76464888  0.86580593    -0.04100
C883        C  0.05955646  0.78765082  0.86496939     0.03100
C884        C  0.07920478  0.79621716  0.85168030    -0.03700
C885        C  0.09488389  0.78162242  0.83833470     0.00100
C886        C  0.09134831  0.75873186  0.83939630    -0.02500
C887        C  0.03608383  0.75574667  0.87987464     0.36800
C888        C  0.11449311  0.79014345  0.82268270     0.40400
C889        C  0.04337321  0.80235602  0.87892882     0.39500
C890        C  0.10777647  0.74385923  0.82637847     0.36400
C891        C  0.05206906  0.72547702  0.80101886     0.37100
C892        C  0.08766956  0.68009014  0.91129787     0.40400
N893        N  0.03044893  0.81407647  0.89008348    -0.37700
N894        N  0.02021234  0.74856711  0.89109676    -0.39300
N895        N  0.13006518  0.79703002  0.81018859    -0.37000
N896        N  0.12089198  0.73202307  0.81602345    -0.39400
N897        N  0.08930240  0.73680139  0.93476955    -0.39200
N898        N  0.09470534  0.67114995  0.93393890    -0.36800
N899        N  0.04938041  0.66907037  0.77696208    -0.37900
N900        N  0.04482402  0.73476726  0.77884326    -0.39500
C901        C  0.10399319  0.57326425  0.99466650    -0.04500
C902        C  0.11779273  0.58759336  0.01247998     0.09700
C903        C  0.12711109  0.60606839  0.99667559    -0.01900
C904        C  0.12292979  0.60999025  0.96324452    -0.00100
C905        C  0.10867780  0.59593894  0.94564159    -0.03700
C906        C  0.09908659  0.57766643  0.96163720     0.03300
C907        C  0.12319864  0.58281793  0.04757474     0.10100
C908        C  0.14101178  0.62105953  0.01497285     0.36000
C909        C  0.08454840  0.56301025  0.94381118     0.39500
C910        C  0.14430143  0.57524907  0.05609863    -0.04100
C911        C  0.14957106  0.57072051  0.08896235     0.03100
C912        C  0.13366292  0.57347768  0.11378217    -0.03700
C913        C  0.11271722  0.58176259  0.10532074     0.00100
C914        C  0.10744064  0.58614126  0.07234043    -0.02500
C915        C  0.16068322  0.57213513  0.03085514     0.36800
C916        C  0.09639737  0.58564408  0.13042098     0.40400
C917        C  0.17176059  0.56425265  0.09729140     0.39500
C918        C  0.08571448  0.59393395  0.06382404     0.36400
C919        C  0.09522745  0.55364341  0.01010956     0.37100
C920        C  0.13286742  0.62886049  0.94732317     0.40400
N921        N  0.18953599  0.55927964  0.10389387    -0.37700
N922        N  0.17370283  0.56988194  0.01064204    -0.39300
N923        N  0.08348760  0.58896552  0.15046639    -0.37000
N924        N  0.06829783  0.59996033  0.05706017    -0.39400
N925        N  0.15217147  0.63287259  0.02970613    -0.39200
N926        N  0.14093126  0.64389546  0.93477188    -0.36800
N927        N  0.07290343  0.55148552  0.92940625    -0.37900
N928        N  0.08825475  0.53792570  0.02225644    -0.39500
C929        C  0.05541637  0.42796472  0.21566609    -0.04500
C930        C  0.05120331  0.44871235  0.22972681     0.09700
C931        C  0.03038334  0.45314917  0.24306408    -0.01900
C932        C  0.01355658  0.43721452  0.24134803    -0.00100
C933        C  0.01740753  0.41657617  0.22611541    -0.03700
C934        C  0.03866992  0.41195798  0.21380270     0.03300
C935        C  0.06821547  0.46649231  0.22843756     0.10100
C936        C  0.02625660  0.47435222  0.25823917     0.36000
C937        C  0.04331741  0.39115692  0.19778091     0.39500
C938        C  0.06605314  0.48371109  0.20552257    -0.04100
C939        C  0.08180793  0.50066247  0.20415350     0.03100
C940        C  0.09998134  0.50047971  0.22559565    -0.03700
C941        C  0.10247502  0.48289652  0.24794834     0.00100
C942        C  0.08656005  0.46601189  0.24946272    -0.02500
C943        C  0.04783866  0.48363618  0.18270750     0.36800
C944        C  0.12124346  0.48227290  0.26968976     0.40400
C945        C  0.07991019  0.51764757  0.17936463     0.39500
C946        C  0.08912669  0.44800120  0.27241229     0.36400
C947        C  0.07694015  0.42332244  0.20229347     0.37100
C948        C  0.99241601  0.44217434  0.25575744     0.40400
N949        N  0.07852456  0.53111381  0.15947942    -0.37700
N950        N  0.03332104  0.48351910  0.16450749    -0.39300
N951        N  0.13626191  0.48170979  0.28695061    -0.37000
N952        N  0.09124189  0.43350563  0.29048150    -0.39400
N953        N  0.02302897  0.49131825  0.27017522    -0.39200
N954        N  0.97559145  0.44627520  0.26725252    -0.36800
N955        N  0.04713810  0.37460900  0.18496828    -0.37900
N956        N  0.09415539  0.41964130  0.19182644    -0.39500
C957        C  0.16615662  0.62737187  0.32775839    -0.04500
C958        C  0.16289116  0.61752298  0.35861328     0.09700
C959        C  0.15132503  0.59739304  0.36059945    -0.01900
C960        C  0.14401840  0.58677999  0.33193471    -0.00100
C961        C  0.14979677  0.59517795  0.30089627    -0.03700
C962        C  0.16030232  0.61598007  0.29896234     0.03300
C963        C  0.17302269  0.62754219  0.38863367     0.10100
C964        C  0.14779781  0.58701865  0.39204174     0.36000
C965        C  0.16646716  0.62515512  0.26758991     0.39500
C966        C  0.15985314  0.63723098  0.41304932    -0.04100
C967        C  0.16955998  0.64602939  0.44158807     0.03100
C968        C  0.19259979  0.64561664  0.44567582    -0.03700
C969        C  0.20577044  0.63627807  0.42089936     0.00100
C970        C  0.19603157  0.62712913  0.39271810    -0.02500
C971        C  0.13628774  0.63828424  0.40862608     0.36800
C972        C  0.22948199  0.63685984  0.42366584     0.40400
C973        C  0.15573139  0.65486521  0.46719016     0.39500
C974        C  0.20976278  0.61735116  0.36771327     0.36400
C975        C  0.17624082  0.64899158  0.32568645     0.37100
C976        C  0.13026096  0.56732472  0.33442868     0.40400
N977        N  0.14469107  0.66183801  0.48767746    -0.37700
N978        N  0.11749205  0.63904036  0.40502601    -0.39300
N979        N  0.24838962  0.63742639  0.42574428    -0.37000
N980        N  0.22068499  0.60971319  0.34761275    -0.39400
N981        N  0.14501196  0.57863864  0.41706357    -0.39200
N982        N  0.11905106  0.55198174  0.33626348    -0.36800
N983        N  0.17155236  0.63248767  0.24264291    -0.37900
N984        N  0.18425085  0.66624593  0.32407605    -0.39500
C985        C  0.46868987  0.45724874  0.21208598    -0.04500
C986        C  0.48839668  0.46239425  0.22833881     0.09700
C987        C  0.49110126  0.48310112  0.24331079    -0.01900
C988        C  0.47434336  0.49896786  0.24122362    -0.00100
C989        C  0.45475082  0.49414850  0.22403806    -0.03700
C990        C  0.45189124  0.47305409  0.20985658     0.03300
C991        C  0.50680008  0.44632941  0.22803592     0.10100
C992        C  0.51131795  0.48812836  0.26045319     0.36000
C993        C  0.43223025  0.46788186  0.19138990     0.39500
C994        C  0.52215792  0.44690016  0.20238958    -0.04100
C995        C  0.53897553  0.43110440  0.20095947     0.03100
C996        C  0.54055921  0.41469979  0.22532904    -0.03700
C997        C  0.52550497  0.41456630  0.25155099     0.00100
C998        C  0.50859433  0.43032890  0.25279319    -0.02500
C999        C  0.52051360  0.46371508  0.17733455     0.36800
C1000       C  0.52789991  0.39881903  0.27794282     0.40400
C1001       C  0.55420142  0.43136053  0.17377943     0.39500
C1002       C  0.49305652  0.43022266  0.27956072     0.36400
C1003       C  0.46599948  0.43580882  0.19690344     0.37100
C1004       C  0.47729412  0.52016652  0.25704693     0.40400
N1005       N  0.56634756  0.43154582  0.15211575    -0.37700
N1006       N  0.51923059  0.47716123  0.15740899    -0.39300
N1007       N  0.52984511  0.38638812  0.29915666    -0.37000
N1008       N  0.48065741  0.43020887  0.30090957    -0.39400
N1009       N  0.52745216  0.49211016  0.27412227    -0.39200
N1010       N  0.47964983  0.53709949  0.26957024    -0.36800
N1011       N  0.41657312  0.46376877  0.17660852    -0.37900
N1012       N  0.46391004  0.41870550  0.18480449    -0.39500
C1013       C  0.38808117  0.62011597  0.31790066    -0.04500
C1014       C  0.39391741  0.61229966  0.34911663     0.09700
C1015       C  0.40626623  0.59276277  0.35200009    -0.01900
C1016       C  0.41170573  0.58043468  0.32392234    -0.00100
C1017       C  0.40483509  0.58760924  0.29264213    -0.03700
C1018       C  0.39338914  0.60781233  0.28977233     0.03300
C1019       C  0.38536594  0.62357434  0.37906416     0.10100
C1020       C  0.41298203  0.58515706  0.38404097     0.36000
C1021       C  0.38559555  0.61524293  0.25816632     0.39500
C1022       C  0.36566878  0.61622153  0.39332146    -0.04100
C1023       C  0.35755576  0.62633319  0.42187624     0.03100
C1024       C  0.36897719  0.64424932  0.43642877    -0.03700
C1025       C  0.38843403  0.65203298  0.42122042     0.00100
C1026       C  0.39664506  0.64155242  0.39292092    -0.02500
C1027       C  0.35361605  0.59825780  0.37823152     0.36800
C1028       C  0.40042110  0.67053939  0.43478940     0.40400
C1029       C  0.33704004  0.61846620  0.43551685     0.39500
C1030       C  0.41688106  0.64910527  0.37808572     0.36400
C1031       C  0.37589479  0.64051269  0.31486209     0.37100
C1032       C  0.42430425  0.56029934  0.32737018     0.40400
N1033       N  0.32070945  0.61207592  0.44631062    -0.37700
N1034       N  0.34403731  0.58398297  0.36603966    -0.39300
N1035       N  0.41000064  0.68538514  0.44538889    -0.37000
N1036       N  0.43303766  0.65506403  0.36623763    -0.39400
N1037       N  0.41836558  0.57912601  0.40961319    -0.39200
N1038       N  0.43432024  0.54423277  0.33016500    -0.36800
N1039       N  0.37930808  0.62106035  0.23294042    -0.37900
N1040       N  0.36622982  0.65681271  0.31240703    -0.39500
C1041       C  0.25482607  0.55532080  0.23445942    -0.04500
C1042       C  0.26480496  0.53824488  0.21656829     0.09700
C1043       C  0.25178817  0.52254150  0.20020401    -0.01900
C1044       C  0.22876641  0.52437053  0.20065553    -0.00100
C1045       C  0.21869261  0.54195357  0.21760430    -0.03700
C1046       C  0.23182937  0.55700894  0.23539676     0.03300
C1047       C  0.28911294  0.53763145  0.21336029     0.10100
C1048       C  0.26220011  0.50493865  0.18199780     0.36000
C1049       C  0.22173983  0.57390540  0.25544865     0.39500
C1050       C  0.30177892  0.52428885  0.23422385    -0.04100
C1051       C  0.32483313  0.52441019  0.23174885     0.03100
C1052       C  0.33529065  0.53797162  0.20828820    -0.03700
C1053       C  0.32238402  0.55101644  0.18701610     0.00100
C1054       C  0.29940896  0.55085904  0.18966560    -0.02500
C1055       C  0.29100544  0.51086317  0.25873238     0.36800
C1056       C  0.33260014  0.56450145  0.16202146     0.40400
C1057       C  0.33767534  0.51136476  0.25444225     0.39500
C1058       C  0.28625036  0.56456164  0.16824170     0.36400
C1059       C  0.26832409  0.57147938  0.25120717     0.37100
C1060       C  0.21560377  0.50868266  0.18245974     0.40400
N1061       N  0.34786465  0.50095970  0.27260972    -0.37700
N1062       N  0.28232268  0.50020594  0.27825375    -0.39300
N1063       N  0.34067477  0.57535394  0.14215868    -0.37000
N1064       N  0.27571669  0.57553019  0.15129279    -0.39400
N1065       N  0.27056925  0.49093030  0.16748709    -0.39200
N1066       N  0.20514755  0.49613095  0.16793728    -0.36800
N1067       N  0.21373400  0.58728242  0.27163819    -0.37900
N1068       N  0.27914314  0.58442489  0.26431526    -0.39500
C1069       C  0.13905641  0.87378362  0.07614974    -0.04500
C1070       C  0.12658457  0.88795577  0.05618669     0.09700
C1071       C  0.11788676  0.90750336  0.06940998    -0.01900
C1072       C  0.12254454  0.91348719  0.10196813    -0.00100
C1073       C  0.13558208  0.89961499  0.12195046    -0.03700
C1074       C  0.14340546  0.87946831  0.10897881     0.03300
C1075       C  0.12290393  0.88264603  0.02088758     0.10100
C1076       C  0.10398099  0.92140030  0.04934178     0.36000
C1077       C  0.15675742  0.86492805  0.12882616     0.39500
C1078       C  0.10597348  0.86814071  0.01158807    -0.04100
C1079       C  0.10165703  0.86419081  0.97824970     0.03100
C1080       C  0.11397946  0.87514945  0.95374722    -0.03700
C1081       C  0.13145823  0.88918291  0.96330811     0.00100
C1082       C  0.13585085  0.89284788  0.99671884    -0.02500
C1083       C  0.09272762  0.85758564  0.03646507     0.36800
C1084       C  0.14455687  0.90053895  0.93902972     0.40400
C1085       C  0.08479549  0.84835541  0.96942442     0.39500
C1086       C  0.15351928  0.90751149  0.00637459     0.36400
C1087       C  0.14768649  0.85349917  0.06262780     0.37100
C1088       C  0.11358778  0.93383446  0.11485984     0.40400
N1089       N  0.07139113  0.83570392  0.96242205    -0.37700
N1090       N  0.08214796  0.84919463  0.05634369    -0.39300
N1091       N  0.15509135  0.90960201  0.91974027    -0.37000
N1092       N  0.16755877  0.91922914  0.01411633    -0.39400
N1093       N  0.09282476  0.93231026  0.03322559    -0.39200
N1094       N  0.10647548  0.95014091  0.12495073    -0.36800
N1095       N  0.16738621  0.85327145  0.14458056    -0.37900
N1096       N  0.15452120  0.83730157  0.05177185    -0.39500
C1097       C  0.03936408  0.02632283  0.25998016    -0.04500
C1098       C  0.05394452  0.02248357  0.23389955     0.09700
C1099       C  0.05291872  0.03583040  0.20575910    -0.01900
C1100       C  0.03821220  0.05367132  0.20437351    -0.00100
C1101       C  0.02357549  0.05757453  0.23044323    -0.03700
C1102       C  0.02384284  0.04350732  0.25794813     0.03300
C1103       C  0.07041872  0.00429921  0.23570885     0.10100
C1104       C  0.06655745  0.03074390  0.17778326     0.36000
C1105       C  0.00835193  0.04684742  0.28431489     0.39500
C1106       C  0.06580817  0.98372120  0.22131253    -0.04100
C1107       C  0.08212637  0.96730630  0.21990475     0.03100
C1108       C  0.10307794  0.97116730  0.23375733    -0.03700
C1109       C  0.10734244  0.99157924  0.24927717     0.00100
C1110       C  0.09111572  0.00812003  0.24999080    -0.02500
C1111       C  0.04432614  0.97968873  0.20729929     0.36800
C1112       C  0.12835635  0.99556897  0.26481891     0.40400
C1113       C  0.07767807  0.94704151  0.20229611     0.39500
C1114       C  0.09579575  0.02928551  0.26491862     0.36400
C1115       C  0.04029302  0.01245888  0.28875947     0.37100
C1116       C  0.03760388  0.06752570  0.17550354     0.40400
N1117       N  0.07414629  0.93097207  0.18800802    -0.37700
N1118       N  0.02715162  0.97654331  0.19621702    -0.39300
N1119       N  0.14513393  0.99870930  0.27719321    -0.37000
N1120       N  0.09949483  0.04619309  0.27677716    -0.39400
N1121       N  0.07715994  0.02648001  0.15526158    -0.39200
N1122       N  0.03710673  0.07865356  0.15258135    -0.36800
N1123       N  0.99587990  0.04941547  0.30522750    -0.37900
N1124       N  0.04110695  0.00141356  0.31174445    -0.39500
C1125       C  0.18591464  0.87777469  0.35827731    -0.04500
C1126       C  0.17192282  0.86064913  0.36858933     0.09700
C1127       C  0.15326437  0.85527953  0.34978888    -0.01900
C1128       C  0.14867253  0.86693522  0.32067849    -0.00100
C1129       C  0.16251680  0.88438247  0.31050297    -0.03700
C1130       C  0.18122487  0.88968044  0.32959052     0.03300
C1131       C  0.17764760  0.84785360  0.39871055     0.10100
C1132       C  0.13877998  0.83777129  0.36053179     0.36000
C1133       C  0.19632726  0.90680721  0.31922770     0.39500
C1134       C  0.17502708  0.85746287  0.42984032    -0.04100
C1135       C  0.18349995  0.84689917  0.45785007     0.03100
C1136       C  0.19424896  0.82632783  0.45500798    -0.03700
C1137       C  0.19609325  0.81636391  0.42386064     0.00100
C1138       C  0.18794220  0.82715658  0.39587715    -0.02500
C1139       C  0.16398673  0.87852238  0.43283321     0.36800
C1140       C  0.20762346  0.79562162  0.42011545     0.40400
C1141       C  0.18109391  0.85727419  0.48954692     0.39500
C1142       C  0.19099569  0.81741523  0.36386295     0.36400
C1143       C  0.20551066  0.88281040  0.37702836     0.37100
C1144       C  0.12945317  0.86116076  0.30163894     0.40400
N1145       N  0.17924154  0.86564323  0.51477710    -0.37700
N1146       N  0.15520863  0.89533818  0.43508399    -0.39300
N1147       N  0.21687152  0.77912285  0.41703896    -0.37000
N1148       N  0.19342354  0.80969328  0.33830030    -0.39400
N1149       N  0.12723598  0.82378390  0.36910487    -0.39200
N1150       N  0.11415278  0.85647394  0.28641786    -0.36800
N1151       N  0.20841802  0.92045649  0.31112656    -0.37900
N1152       N  0.22107137  0.88669014  0.39215454    -0.39500
C1153       C  0.52883424  0.02141919  0.20062243    -0.04500
C1154       C  0.51158882  0.02397903  0.22321499     0.09700
C1155       C  0.51111142  0.04256642  0.24380634    -0.01900
C1156       C  0.52779092  0.05859541  0.24183284    -0.00100
C1157       C  0.54497833  0.05624322  0.21895506    -0.03700
C1158       C  0.54537672  0.03759770  0.19821855     0.03300
C1159       C  0.49358246  0.00728499  0.22457407     0.10100
C1160       C  0.49332926  0.04524233  0.26690155     0.36000
C1161       C  0.56204488  0.03560583  0.17314264     0.39500
C1162       C  0.49513219  0.98913404  0.24587094    -0.04100
C1163       C  0.47895081  0.97248818  0.24535102     0.03100
C1164       C  0.46071845  0.97422108  0.22403406    -0.03700
C1165       C  0.45902223  0.99283316  0.20323929     0.00100
C1166       C  0.47533777  0.00930514  0.20370652    -0.02500
C1167       C  0.51327737  0.98786551  0.26869414     0.36800
C1168       C  0.44110022  0.99466997  0.18007791     0.40400
C1169       C  0.48108099  0.95374910  0.26708480     0.39500
C1170       C  0.47337982  0.02847155  0.18273187     0.36400
C1171       C  0.52934383  0.00219243  0.17958402     0.37100
C1172       C  0.52741948  0.07736168  0.26377605     0.40400
N1173       N  0.48290683  0.93874807  0.28429998    -0.37700
N1174       N  0.52766585  0.98708565  0.28708273    -0.39300
N1175       N  0.42687895  0.99616668  0.16149246    -0.37000
N1176       N  0.47178120  0.04383059  0.16617677    -0.39400
N1177       N  0.47914606  0.04743732  0.28532887    -0.39200
N1178       N  0.52723288  0.09239669  0.28114465    -0.36800
N1179       N  0.57520184  0.03407556  0.15294416    -0.37900
N1180       N  0.52971074  0.98681244  0.16289944    -0.39500
C1181       C  0.39572726  0.85320547  0.33867737    -0.04500
C1182       C  0.39558255  0.86479655  0.36851985     0.09700
C1183       C  0.40222051  0.88705645  0.36916498    -0.01900
C1184       C  0.40797617  0.89797019  0.33991589    -0.00100
C1185       C  0.40695014  0.88674110  0.30959746    -0.03700
C1186       C  0.40157085  0.86401656  0.30939252     0.03300
C1187       C  0.38734180  0.85378046  0.39895204     0.10100
C1188       C  0.40260966  0.89886020  0.39994260     0.36000
C1189       C  0.40105242  0.85184066  0.27893853     0.39500
C1190       C  0.40175422  0.84196611  0.41939185    -0.04100
C1191       C  0.39370987  0.83091141  0.44730991     0.03100
C1192       C  0.37103286  0.83127343  0.45474529    -0.03700
C1193       C  0.35673234  0.84367337  0.43460026     0.00100
C1194       C  0.36488658  0.85488026  0.40694602    -0.02500
C1195       C  0.42493039  0.84127573  0.41167162     0.36800
C1196       C  0.33344225  0.84454124  0.44165689     0.40400
C1197       C  0.40897868  0.82002878  0.46913200     0.39500
C1198       C  0.35011471  0.86749673  0.38644979     0.36400
C1199       C  0.38901807  0.83027258  0.33800994     0.37100
C1200       C  0.41536509  0.92068565  0.34122293     0.40400
N1201       N  0.42119516  0.81151233  0.48668743    -0.37700
N1202       N  0.44342141  0.84073754  0.40552559    -0.39300
N1203       N  0.31488488  0.84532454  0.44730527    -0.37000
N1204       N  0.33833226  0.87761182  0.37015777    -0.39400
N1205       N  0.40287743  0.90827993  0.42449695    -0.39200
N1206       N  0.42136496  0.93876700  0.34231301    -0.36800
N1207       N  0.40072784  0.84208306  0.25467468    -0.37900
N1208       N  0.38356023  0.81201207  0.33751256    -0.39500
C1209       C  0.30712472  0.95068506  0.22959964    -0.04500
C1210       C  0.29497129  0.94085614  0.20422234     0.09700
C1211       C  0.30591335  0.93063469  0.17799661    -0.01900
C1212       C  0.32896001  0.92908317  0.17811245    -0.00100
C1213       C  0.34116650  0.93783884  0.20450755    -0.03700
C1214       C  0.33018012  0.94941138  0.22961922     0.03300
C1215       C  0.27068443  0.93884956  0.20715419     0.10100
C1216       C  0.29331126  0.92093397  0.15157926     0.36000
C1217       C  0.34237667  0.95879452  0.25669181     0.39500
C1218       C  0.25677328  0.95600995  0.19684886    -0.04100
C1219       C  0.23381105  0.95363872  0.19941052     0.03100
C1220       C  0.22468654  0.93382027  0.21162687    -0.03700
C1221       C  0.23883619  0.91679832  0.22241241     0.00100
C1222       C  0.26170464  0.91951591  0.22066556    -0.02500
C1223       C  0.26616651  0.97603403  0.18352597     0.36800
C1224       C  0.23003409  0.89655391  0.23601210     0.40400
C1225       C  0.21967227  0.97134439  0.18843208     0.39500
C1226       C  0.27615730  0.90255438  0.23336797     0.36400
C1227       C  0.29574841  0.96090995  0.25671464     0.37100
C1228       C  0.34005620  0.91844914  0.15105414     0.40400
N1229       N  0.20843692  0.98551890  0.17971581    -0.37700
N1230       N  0.27369926  0.99201021  0.17293283    -0.39300
N1231       N  0.22315582  0.88030713  0.24669868    -0.37000
N1232       N  0.28776993  0.88920345  0.24369398    -0.39400
N1233       N  0.28319354  0.91316223  0.13061689    -0.39200
N1234       N  0.34887394  0.90998494  0.12943377    -0.36800
N1235       N  0.35207436  0.96630601  0.27829091    -0.37900
N1236       N  0.28657719  0.96890595  0.27838717    -0.39500
C1237       C  0.43827667  0.55531186  0.97960935    -0.04500
C1238       C  0.43460625  0.57246292  0.00226586     0.09700
C1239       C  0.43587366  0.59458708  0.99178281    -0.01900
C1240       C  0.44143714  0.59956209  0.95917644    -0.00100
C1241       C  0.44543404  0.58240886  0.93658523    -0.03700
C1242       C  0.44348393  0.56025776  0.94683905     0.03300
C1243       C  0.42973592  0.56734068  0.03737114     0.10100
C1244       C  0.43149400  0.61223902  0.01474107     0.36000
C1245       C  0.44781798  0.54251409  0.92400901     0.39500
C1246       C  0.44590282  0.57078225  0.06152521    -0.04100
C1247       C  0.44118711  0.56668930  0.09471428     0.03100
C1248       C  0.42021548  0.55894014  0.10412916    -0.03700
C1249       C  0.40413669  0.55518134  0.07971883     0.00100
C1250       C  0.40882848  0.55961703  0.04660339    -0.02500
C1251       C  0.46744839  0.57868703  0.05213497     0.36800
C1252       C  0.38246722  0.54732376  0.08853819     0.40400
C1253       C  0.45826809  0.56981309  0.11894858     0.39500
C1254       C  0.39193620  0.55681192  0.02199199     0.36400
C1255       C  0.43723871  0.53254110  0.99021121     0.37100
C1256       C  0.44259659  0.62238489  0.94876689     0.40400
N1257       N  0.47194328  0.57231646  0.13820369    -0.37700
N1258       N  0.48456083  0.58514009  0.04459787    -0.39300
N1259       N  0.36518899  0.54095252  0.09536601    -0.37000
N1260       N  0.37847823  0.55465484  0.00231644    -0.39400
N1261       N  0.42804710  0.62621918  0.03323356    -0.39200
N1262       N  0.44347579  0.64059943  0.94052160    -0.36800
N1263       N  0.45129700  0.52846481  0.90564052    -0.37900
N1264       N  0.43641954  0.51434133  0.99852281    -0.39500
C1265       C  0.57383445  0.48451909  0.86650365    -0.04500
C1266       C  0.57612811  0.50198085  0.84410225     0.09700
C1267       C  0.59491895  0.50326556  0.82424375    -0.01900
C1268       C  0.61120327  0.48685278  0.82619776    -0.00100
C1269       C  0.60897037  0.46920671  0.84859206    -0.03700
C1270       C  0.59032431  0.46836744  0.86915442     0.03300
C1271       C  0.55849924  0.51890717  0.84110076     0.10100
C1272       C  0.59731847  0.52141872  0.80149267     0.36000
C1273       C  0.58838636  0.45140817  0.89396833     0.39500
C1274       C  0.55966980  0.53853898  0.85939033    -0.04100
C1275       C  0.54268395  0.55421642  0.85727545     0.03100
C1276       C  0.52446444  0.55040019  0.83652147    -0.03700
C1277       C  0.52362498  0.53085391  0.81772608     0.00100
C1278       C  0.54046752  0.51508227  0.82032132    -0.02500
C1279       C  0.57813742  0.54227668  0.88105304     0.36800
C1280       C  0.50567711  0.52708990  0.79513496     0.40400
C1281       C  0.54352826  0.57369448  0.87779754     0.39500
C1282       C  0.53909112  0.49464900  0.80205821     0.36400
C1283       C  0.55435188  0.48316291  0.88667961     0.37100
C1284       C  0.62981226  0.48782243  0.80422985     0.40400
N1285       N  0.54418392  0.58916753  0.89428233    -0.37700
N1286       N  0.59285694  0.54519759  0.89836619    -0.39300
N1287       N  0.49138940  0.52410255  0.77705944    -0.37000
N1288       N  0.53792802  0.47827019  0.78770562    -0.39400
N1289       N  0.59923130  0.53593513  0.78341092    -0.39200
N1290       N  0.64460754  0.48862068  0.78661831    -0.36800
N1291       N  0.58688802  0.43797100  0.91388539    -0.37900
N1292       N  0.53872133  0.48207719  0.90257004    -0.39500
C1293       C  0.40304644  0.59124697  0.70882781    -0.04500
C1294       C  0.40789037  0.61010607  0.68993173     0.09700
C1295       C  0.42557486  0.62378626  0.69914292    -0.01900
C1296       C  0.43867327  0.61842012  0.72633515    -0.00100
C1297       C  0.43323563  0.60018260  0.74637185    -0.03700
C1298       C  0.41527293  0.58663467  0.73744608     0.03300
C1299       C  0.39438479  0.61628147  0.66059817     0.10100
C1300       C  0.42980738  0.64398602  0.68120591     0.36000
C1301       C  0.40956907  0.56770553  0.75728973     0.39500
C1302       C  0.37340004  0.62567575  0.66461420    -0.04100
C1303       C  0.36273662  0.63586935  0.63795354     0.03100
C1304       C  0.37306165  0.63685920  0.60702661    -0.03700
C1305       C  0.39341814  0.62615170  0.60261204     0.00100
C1306       C  0.40383567  0.61563845  0.62915542    -0.02500
C1307       C  0.36311414  0.62553047  0.69651538     0.36800
C1308       C  0.40373828  0.62595356  0.57073441     0.40400
C1309       C  0.34177872  0.64658375  0.64308675     0.39500
C1310       C  0.42461204  0.60451266  0.62436935     0.36400
C1311       C  0.38546006  0.57664191  0.69880127     0.37100
C1312       C  0.45739106  0.63227533  0.73404939     0.40400
N1313       N  0.32510467  0.65516259  0.64738549    -0.37700
N1314       N  0.35487183  0.62518447  0.72193638    -0.39300
N1315       N  0.41199604  0.62587706  0.54532022    -0.37000
N1316       N  0.44117073  0.59560836  0.62060747    -0.39400
N1317       N  0.43300149  0.66012864  0.66695476    -0.39200
N1318       N  0.47240914  0.64325514  0.73992966    -0.36800
N1319       N  0.40492495  0.55263280  0.77314841    -0.37900
N1320       N  0.37140767  0.56501128  0.69076919    -0.39500
C1321       C  0.44800381  0.90150411  0.06925235    -0.04500
C1322       C  0.43535777  0.88492340  0.05416681     0.09700
C1323       C  0.41867971  0.87420768  0.07201337    -0.01900
C1324       C  0.41430416  0.88046499  0.10460078    -0.00100
C1325       C  0.42664041  0.89748177  0.11947837    -0.03700
C1326       C  0.44367649  0.90778988  0.10171804     0.03300
C1327       C  0.44023782  0.87846966  0.01965328     0.10100
C1328       C  0.40601659  0.85678452  0.05674988     0.36000
C1329       C  0.45723800  0.92448124  0.11714686     0.39500
C1330       C  0.45502218  0.86118521  0.01332610    -0.04100
C1331       C  0.46122241  0.85623462  0.98098743     0.03100
C1332       C  0.45268870  0.86863444  0.95452640    -0.03700
C1333       C  0.43737530  0.88561713  0.96097871     0.00100
C1334       C  0.43144137  0.89067427  0.99343336    -0.02500
C1335       C  0.46444300  0.84899129  0.04036307     0.36800
C1336       C  0.42831990  0.89858116  0.93445373     0.40400
C1337       C  0.47618926  0.83809301  0.97514253     0.39500
C1338       C  0.41700478  0.90912091  0.99997277     0.36400
C1339       C  0.46568770  0.91190863  0.05128841     0.37100
C1340       C  0.39658751  0.86994970  0.12233671     0.40400
N1341       N  0.48814909  0.82364993  0.97051780    -0.37700
N1342       N  0.47200049  0.83938889  0.06201431    -0.39300
N1343       N  0.42103382  0.90885702  0.91327171    -0.37000
N1344       N  0.40568533  0.92401123  0.00501693    -0.39400
N1345       N  0.39595140  0.84282765  0.04463134    -0.39200
N1346       N  0.38243740  0.86158349  0.13648772    -0.36800
N1347       N  0.46807360  0.93774043  0.12951537    -0.37900
N1348       N  0.47979162  0.92006516  0.03678660    -0.39500
C1349       C  0.53614401  0.93920134  0.80505690    -0.04500
C1350       C  0.55273632  0.94353952  0.82816992     0.09700
C1351       C  0.55470498  0.93006461  0.85607386    -0.01900
C1352       C  0.54019139  0.91227157  0.86087745    -0.00100
C1353       C  0.52355394  0.90782644  0.83773465    -0.03700
C1354       C  0.52167860  0.92130830  0.80968558     0.03300
C1355       C  0.56821924  0.96240141  0.82363807     0.10100
C1356       C  0.57144660  0.93489451  0.88024085     0.36000
C1357       C  0.50524778  0.91640672  0.78508074     0.39500
C1358       C  0.56279855  0.98343344  0.83578477    -0.04100
C1359       C  0.57861373  0.00041477  0.83601965     0.03100
C1360       C  0.60000264  0.99639014  0.82404445    -0.03700
C1361       C  0.60479334  0.97579376  0.80957002     0.00100
C1362       C  0.58904094  0.95878042  0.80976753    -0.02500
C1363       C  0.54120110  0.98725894  0.84939124     0.36800
C1364       C  0.62583236  0.97217896  0.79399826     0.40400
C1365       C  0.57310875  0.02158972  0.85023820     0.39500
C1366       C  0.59449326  0.93725727  0.79674999     0.36400
C1367       C  0.53381607  0.95330916  0.77671146     0.37100
C1368       C  0.54184380  0.89917682  0.89039895     0.40400
N1369       N  0.56870205  0.03848948  0.86153158    -0.37700
N1370       N  0.52397447  0.99028954  0.86026959    -0.39300
N1371       N  0.64256147  0.96939639  0.78137986    -0.37000
N1372       N  0.59890382  0.92005679  0.78652230    -0.39400
N1373       N  0.58477906  0.93886258  0.89947992    -0.39200
N1374       N  0.54315472  0.88880230  0.91401353    -0.36800
N1375       N  0.49216800  0.91238140  0.76547806    -0.37900
N1376       N  0.53178926  0.96458617  0.75414290    -0.39500
C1377       C  0.41095618  0.83978656  0.64621328    -0.04500
C1378       C  0.40128038  0.83825758  0.67736740     0.09700
C1379       C  0.37973605  0.83009539  0.68043757    -0.01900
C1380       C  0.36806646  0.82296477  0.65261104    -0.00100
C1381       C  0.37808208  0.82347192  0.62144615    -0.03700
C1382       C  0.39942526  0.83243858  0.61833344     0.03300
C1383       C  0.41453797  0.84287325  0.70736706     0.10100
C1384       C  0.36997953  0.82804006  0.71258166     0.36000
C1385       C  0.40944416  0.83452226  0.58638649     0.39500
C1386       C  0.41407931  0.86377444  0.72248344    -0.04100
C1387       C  0.42564237  0.86736669  0.75194499     0.03100
C1388       C  0.43806011  0.85015847  0.76599072    -0.03700
C1389       C  0.43849137  0.82926024  0.75068201     0.00100
C1390       C  0.42689653  0.82572030  0.72142633    -0.02500
C1391       C  0.40201317  0.88161924  0.70737713     0.36800
C1392       C  0.45003233  0.81100065  0.76578860     0.40400
C1393       C  0.42509959  0.88885184  0.76742741     0.39500
C1394       C  0.42759426  0.80431982  0.70565330     0.36400
C1395       C  0.43306171  0.84833767  0.64307882     0.37100
C1396       C  0.34611810  0.81413677  0.65647853     0.40400
N1397       N  0.42464423  0.90594855  0.77990549    -0.37700
N1398       N  0.39252517  0.89593143  0.69520470    -0.39300
N1399       N  0.45909693  0.79638907  0.77790169    -0.37000
N1400       N  0.42814451  0.78733591  0.69286490    -0.39400
N1401       N  0.36228612  0.82625593  0.73824119    -0.39200
N1402       N  0.32857781  0.80716675  0.65958693    -0.36800
N1403       N  0.41743673  0.83628838  0.56092556    -0.37900
N1404       N  0.45072175  0.85512002  0.64064957    -0.39500
C1405       C  0.46948280  0.70448777  0.82659007    -0.04500
C1406       C  0.48584088  0.71357344  0.84685907     0.09700
C1407       C  0.50014293  0.69963258  0.86421940    -0.01900
C1408       C  0.49763065  0.67657908  0.86223574    -0.00100
C1409       C  0.48072009  0.66741706  0.84282549    -0.03700
C1410       C  0.46678475  0.68148995  0.82475354     0.03300
C1411       C  0.48701028  0.73791460  0.85137839     0.10100
C1412       C  0.51726509  0.70912557  0.88440220     0.36000
C1413       C  0.44974561  0.67239514  0.80396077     0.39500
C1414       C  0.47475299  0.74788666  0.87644529    -0.04100
C1415       C  0.47386819  0.77100177  0.87890785     0.03100
C1416       C  0.48584658  0.78433026  0.85682465    -0.03700
C1417       C  0.49885010  0.77417696  0.83247802     0.00100
C1418       C  0.49929835  0.75101600  0.82970892    -0.02500
C1419       C  0.46287042  0.73423951  0.89953953     0.36800
C1420       C  0.51063655  0.78746375  0.80886059     0.40400
C1421       C  0.46039524  0.78096378  0.90406955     0.39500
C1422       C  0.51197489  0.74055711  0.80411364     0.36400
C1423       C  0.45538350  0.71888977  0.80766216     0.37100
C1424       C  0.51179674  0.66242710  0.88144267     0.40400
N1425       N  0.44946076  0.78887833  0.92391834    -0.37700
N1426       N  0.45355143  0.72328641  0.91802415    -0.39300
N1427       N  0.51994872  0.79805006  0.78990453    -0.37000
N1428       N  0.52203175  0.73209474  0.78374387    -0.39400
N1429       N  0.53093613  0.71677811  0.90040538    -0.39200
N1430       N  0.52310303  0.65120759  0.89686648    -0.36800
N1431       N  0.43605426  0.66523096  0.78750115    -0.37900
N1432       N  0.44422357  0.73035501  0.79240691    -0.39500
loop_ 
_geom_bond_atom_site_label_1 
_geom_bond_atom_site_label_2 
_geom_bond_distance 
_geom_bond_site_symmetry_2 
_ccdc_geom_bond_type 
O1            C4   1.267       .  A
O1           Cd6   2.473       .  S
C2           O11   1.264       .  A
C2            O7   1.269       .  A
C2         C1416   1.486       .  S
O3            C9   1.267       .  A
O3           Cd6   2.477       .  S
C4           O12   1.265       .  A
C4         C1353   1.486       .  S
C5           O10   1.269       .  A
C5            O8   1.265       .  A
C5         C1388   1.484       .  S
Cd6          O13   2.451       .  S
Cd6          O12   2.450       .  S
Cd6          O11   2.424       .  S
Cd6           O7   2.481       .  S
Cd6          O10   2.483       .  S
Cd6           O8   2.425       .  S
C9           O13   1.265       .  A
C9         C1332   1.494       .  S
O14          C17   1.266       .  A
O14         Cd19   2.459       .  S
C15          O24   1.266       .  A
C15          O20   1.265       .  A
C15        C1276   1.488       .  S
O16          C22   1.268       .  A
O16         Cd19   2.485       .  S
C17          O25   1.265       .  A
C17        C1409   1.481       .  S
C18          O23   1.267       .  A
C18          O21   1.264       .  A
C18        C1297   1.495       .  S
Cd19         O26   2.455       .  S
Cd19         O25   2.436       .  S
Cd19         O24   2.460       .  S
Cd19         O20   2.463       .  S
Cd19         O23   2.503       .  S
Cd19         O21   2.458       .  S
C22          O26   1.263       .  A
C22        C1241   1.487       .  S
O27          C30   1.265       .  A
O27         Cd32   2.454       .  S
C28          O37   1.265       .  A
C28          O33   1.266       .  A
C28        C1213   1.485       .  S
O29          C35   1.268       .  A
O29         Cd32   2.500       .  S
C30          O38   1.267       .  A
C30        C1164   1.492       .  S
C31          O36   1.268       .  A
C31          O34   1.264       .  A
C31        C1185   1.498       .  S
Cd32         O39   2.441       .  S
Cd32         O38   2.473       .  S
Cd32         O37   2.450       .  S
Cd32         O33   2.464       .  S
Cd32         O36   2.500       .  S
Cd32         O34   2.467       .  S
C35          O39   1.263       .  A
C35        C1325   1.487       .  S
O40          C43   1.267       .  A
O40         Cd45   2.458       .  S
C41          O50   1.264       .  A
C41          O46   1.267       .  A
C41        C1220   1.488       .  S
O42          C48   1.269       .  A
O42         Cd45   2.497       .  S
C43          O51   1.267       .  A
C43        C1108   1.490       .  S
C44          O49   1.269       .  A
C44          O47   1.264       .  A
C44        C1073   1.494       .  S
Cd45         O52   2.441       .  S
Cd45         O51   2.465       .  S
Cd45         O50   2.437       .  S
Cd45         O46   2.484       .  S
Cd45         O49   2.494       .  S
Cd45         O47   2.450       .  S
C48          O52   1.264       .  A
C48        C1129   1.494       .  S
O53          C56   1.268       .  A
O53         Cd58   2.465       .  S
C54          O63   1.265       .  A
C54          O59   1.267       .  A
C54         C989   1.484       .  S
O55          C61   1.269       .  A
O55         Cd58   2.482       .  S
C56          O64   1.265       .  A
C56        C1052   1.485       .  S
C57          O62   1.269       .  A
C57          O60   1.264       .  A
C57        C1017   1.491       .  S
Cd58         O65   2.461       .  S
Cd58         O64   2.415       .  S
Cd58         O63   2.430       .  S
Cd58         O59   2.450       .  S
Cd58         O62   2.476       .  S
Cd58         O60   2.447       .  S
C61          O65   1.265       .  A
C61        C1248   1.495       .  S
O66          C69   1.265       .  A
O66         Cd71   2.469       .  S
C67          O76   1.264       .  A
C67          O72   1.266       .  A
C67        C1045   1.484       .  S
O68          C74   1.266       .  A
O68         Cd71   2.486       .  S
C69          O77   1.266       .  A
C69         C940   1.485       .  S
C70          O75   1.267       .  A
C70          O73   1.265       .  A
C70         C961   1.493       .  S
Cd71         O78   2.465       .  S
Cd71         O77   2.457       .  S
Cd71         O76   2.438       .  S
Cd71         O72   2.470       .  S
Cd71         O75   2.486       .  S
Cd71         O73   2.445       .  S
C74          O78   1.265       .  A
C74         C912   1.494       .  S
O79          C82   1.266       .  A
O79         Cd84   2.453       .  S
C80          O89   1.263       .  A
C80          O85   1.266       .  A
C80         C884   1.485       .  S
O81          C87   1.266       .  A
O81         Cd84   2.486       .  S
C82          O90   1.266       .  A
C82         C828   1.491       .  S
C83          O88   1.267       .  A
C83          O86   1.265       .  A
C83        C1080   1.496       .  S
Cd84         O91   2.446       .  S
Cd84         O90   2.463       .  S
Cd84         O89   2.429       .  S
Cd84         O85   2.490       .  S
Cd84         O88   2.477       .  S
Cd84         O86   2.445       .  S
C87          O91   1.264       .  A
C87         C856   1.490       .  S
O92          C95   1.266       .  A
O92         Cd97   2.465       .  S
C93         O102   1.264       .  A
C93          O98   1.267       .  A
C93         C877   1.486       .  S
O94         C100   1.268       .  A
O94         Cd97   2.502       .  S
C95         O103   1.267       .  A
C95         C772   1.489       .  S
C96         O101   1.269       .  A
C96          O99   1.264       .  A
C96         C793   1.499       .  S
Cd97        O104   2.444       .  S
Cd97        O103   2.479       .  S
Cd97        O102   2.437       .  S
Cd97         O98   2.471       .  S
Cd97        O101   2.504       .  S
Cd97         O99   2.459       .  S
C100        O104   1.263       .  A
C100        C905   1.489       .  S
O105        C108   1.264       .  A
O105       Cd110   2.477       .  S
C106        O115   1.264       .  A
C106        O111   1.263       .  A
C106        C121   1.464       .  S
O107        C113   1.264       .  A
O107       Cd110   2.476       .  S
C108        O116   1.268       .  A
C108       C1304   1.493       .  S
C109        O114   1.266       .  A
C109        O112   1.265       .  A
C109       C1024   1.503       .  S
Cd110       O117   2.505       .  S
Cd110       O116   2.485       .  S
Cd110       O115   2.481       .  S
Cd110       O111   2.453       .  S
Cd110       O114   2.498       .  S
Cd110       O112   2.469       .  S
C113        O117   1.266       .  A
C113        C152   1.474       .  S
O118        C121   1.264       .  A
O118       Cd123   2.451       .  S
C119        O128   1.265       .  A
C119        O124   1.264       .  A
C119        C800   1.490       .  S
O120        C126   1.264       .  A
O120       Cd123   2.470       .  S
C121        O129   1.265       .  A
C122        O127   1.265       .  A
C122        O125   1.266       .  A
C122        C968   1.492       .  S
Cd123       O130   2.481       .  S
Cd123       O129   2.479       .  S
Cd123       O128   2.457       .  S
Cd123       O124   2.492       .  S
Cd123       O127   2.483       .  S
Cd123       O125   2.479       .  S
C126        O130   1.264       .  A
C126        C132   1.467       .  S
O131        C134   1.264       .  A
O131       Cd136   2.472       .  S
C132        O141   1.266       .  A
C132        O137   1.263       .  A
O133        C139   1.264       .  A
O133       Cd136   2.483       .  S
C134        O142   1.265       .  A
C134       C1136   1.491       .  S
C135        O140   1.266       .  A
C135        O138   1.266       .  A
C135        C849   1.497       .  S
Cd136       O143   2.478       .  S
Cd136       O142   2.485       .  S
Cd136       O141   2.486       .  S
Cd136       O137   2.464       .  S
Cd136       O140   2.472       .  S
Cd136       O138   2.482       .  S
C139        O143   1.264       .  A
C139        C147   1.470       .  S
O144        C147   1.265       .  A
O144       Cd149   2.484       .  S
C145        O154   1.266       .  A
C145        O150   1.265       .  A
C145       C1381   1.492       .  S
O146        C152   1.264       .  A
O146       Cd149   2.480       .  S
C147        O155   1.264       .  A
C148        O153   1.266       .  A
C148        O151   1.265       .  A
C148       C1192   1.496       .  S
Cd149       O156   2.506       .  S
Cd149       O155   2.475       .  S
Cd149       O154   2.481       .  S
Cd149       O150   2.477       .  S
Cd149       O153   2.487       .  S
Cd149       O151   2.471       .  S
C152        O156   1.265       .  A
O157        C160   1.266       .  A
O157       Cd162   2.473       .  S
C158        O167   1.266       .  A
C158        O163   1.265       .  A
C158        C765   1.496       .  S
O159        C165   1.267       .  A
O159       Cd162   2.502       .  S
C160        O168   1.264       .  A
C160        C737   1.482       .  S
C161        O166   1.268       .  A
C161        O164   1.265       .  A
C161        C709   1.489       .  S
Cd162       O169   2.447       .  S
Cd162       O168   2.434       .  S
Cd162       O167   2.469       .  S
Cd162       O163   2.474       .  S
Cd162       O166   2.483       .  S
Cd162       O164   2.437       .  S
C165        O169   1.264       .  A
C165        C688   1.490       .  S
O170        C173   1.267       .  A
O170       Cd175   2.465       .  S
C171        O180   1.266       .  A
C171        O176   1.265       .  A
C171       C1269   1.489       .  S
O172        C178   1.267       .  A
O172       Cd175   2.474       .  S
C173        O181   1.264       .  A
C173        C744   1.487       .  S
C174        O179   1.267       .  A
C174        O177   1.264       .  A
C174        C625   1.488       .  S
Cd175       O182   2.451       .  S
Cd175       O181   2.423       .  S
Cd175       O180   2.458       .  S
Cd175       O176   2.460       .  S
Cd175       O179   2.470       .  S
Cd175       O177   2.439       .  S
C178        O182   1.265       .  A
C178        C653   1.489       .  S
O183        C186   1.267       .  A
O183       Cd188   2.466       .  S
C184        O193   1.267       .  A
C184        O189   1.265   1_655  A
C184        C933   1.497   1_655  S
O185        C191   1.269       .  A
O185       Cd188   2.504       .  S
C186        O194   1.265       .  A
C186        C604   1.485       .  S
C187        O192   1.268       .  A
C187        O190   1.262       .  A
C187        C576   1.491       .  S
Cd188       O195   2.446       .  S
Cd188       O194   2.435       .  S
Cd188       O193   2.472       .  S
Cd188       O189   2.454   1_655  S
Cd188       O192   2.498       .  S
Cd188       O190   2.434       .  S
C191        O195   1.264       .  A
C191        C681   1.491       .  S
O196        C199   1.269       .  A
O196       Cd201   2.477       .  S
C197        O206   1.265   1_455  A
C197        O202   1.267       .  A
C197       C1101   1.483       .  S
O198        C204   1.269       .  A
O198       Cd201   2.479       .  S
C199        O207   1.264       .  A
C199        C597   1.486       .  S
C200        O205   1.268       .  A
C200        O203   1.264       .  A
C200        C513   1.495       .  S
Cd201       O208   2.431       .  S
Cd201       O207   2.417       .  S
Cd201       O206   2.457       .  S
Cd201       O202   2.454   1_655  S
Cd201       O205   2.474       .  S
Cd201       O203   2.452       .  S
C204        O208   1.264       .  A
C204        C548   1.493       .  S
O209        C212   1.268       .  A
O209       Cd214   2.465       .  S
C210        O219   1.264       .  A
C210        O215   1.264       .  A
C210        C996   1.480       .  S
O211        C217   1.267       .  A
O211       Cd214   2.470       .  S
C212        O220   1.266       .  A
C212        C485   1.485       .  S
C213        O218   1.268       .  A
C213        O216   1.263       .  A
C213        C632   1.485       .  S
Cd214       O221   2.446       .  S
Cd214       O220   2.420       .  S
Cd214       O219   2.445       .  S
Cd214       O215   2.462       .  S
Cd214       O218   2.493       .  S
Cd214       O216   2.436       .  S
C217        O221   1.263       .  A
C217        C464   1.493       .  S
O222        C225   1.266       .  A
O222       Cd227   2.472       .  S
C223        O232   1.267       .  A
C223        O228   1.266       .  A
C223       C1157   1.485       .  S
O224        C230   1.269       .  A
O224       Cd227   2.494       .  S
C225        O233   1.264       .  A
C225        C492   1.487       .  S
C226        O231   1.268       .  A
C226        O229   1.264       .  A
C226        C429   1.490       .  S
Cd227       O234   2.428       .  S
Cd227       O233   2.448       .  S
Cd227       O232   2.466       .  S
Cd227       O228   2.436       .  S
Cd227       O231   2.480       .  S
Cd227       O229   2.471       .  S
C230        O234   1.263       .  A
C230        C408   1.493       .  S
O235        C238   1.269       .  A
O235       Cd240   2.487       .  S
C236        O245   1.266       .  A
C236        O241   1.268       .  A
C236        C821   1.486   1_545  S
O237        C243   1.269       .  A
O237       Cd240   2.483       .  S
C238        O246   1.264       .  A
C238        C380   1.491       .  S
C239        O244   1.269       .  A
C239        O242   1.265       .  A
C239        C520   1.487       .  S
Cd240       O247   2.441       .  S
Cd240       O246   2.415       .  S
Cd240       O245   2.452       .  S
Cd240       O241   2.456       .  S
Cd240       O244   2.472       .  S
Cd240       O242   2.438       .  S
C243        O247   1.265       .  A
C243        C352   1.489       .  S
O248        C251   1.266       .  A
O248       Cd253   2.449       .  S
C249        O258   1.266       .  A
C249        O254   1.267       .  A
C249        C373   1.485       .  S
O250        C256   1.269       .  A
O250       Cd253   2.489       .  S
C251        O259   1.266       .  A
C251       C1360   1.488   1_545  S
C252        O257   1.269       .  A
C252        O255   1.263       .  A
C252        C401   1.484       .  S
Cd253       O260   2.427       .  S
Cd253       O259   2.467       .  S
Cd253       O258   2.434       .  S
Cd253       O254   2.469       .  S
Cd253       O257   2.493       .  S
Cd253       O255   2.430       .  S
C256        O260   1.263       .  A
C256        C317   1.489       .  S
O261        C264   1.266       .  A
O261       Cd266   2.458       .  S
C262        O271   1.262       .  A
C262        O267   1.263       .  A
C262        C308   1.464       .  S
O263        C269   1.267       .  A
O263       Cd266   2.475       .  S
C264        O272   1.265       .  A
C264        C457   1.489       .  S
C265        O270   1.265       .  A
C265        O268   1.264       .  A
C265        C275   1.462       .  S
Cd266       O273   2.458       .  S
Cd266       O272   2.466       .  S
Cd266       O271   2.464       .  S
Cd266       O267   2.478       .  S
Cd266       O270   2.463       .  S
Cd266       O268   2.454       .  S
C269        O273   1.265       .  A
C269        C660   1.496       .  S
O274        C277   1.265       .  A
O274       Cd279   2.448       .  S
C275        O284   1.264       .  A
C275        O280   1.263       .  A
O276        C282   1.265       .  A
O276       Cd279   2.491       .  S
C277        O285   1.266       .  A
C277        C324   1.482       .  S
C278        O283   1.266       .  A
C278        O281   1.265       .  A
C278        C436   1.496       .  S
Cd279       O286   2.464       .  S
Cd279       O285   2.449       .  S
Cd279       O284   2.465       .  S
Cd279       O280   2.466       .  S
Cd279       O283   2.464       .  S
Cd279       O281   2.477       .  S
C282        O286   1.262       .  A
C282        C288   1.467       .  S
O287        C290   1.266       .  A
O287       Cd292   2.473       .  S
C288        O297   1.264       .  A
C288        O293   1.263       .  A
O289        C295   1.266       .  A
O289       Cd292   2.491       .  S
C290        O298   1.265       .  A
C290        C541   1.489       .  S
C291        O296   1.265       .  A
C291        O294   1.264       .  A
C291        C301   1.466       .  S
Cd292       O299   2.490       .  S
Cd292       O298   2.455       .  S
Cd292       O297   2.472       .  S
Cd292       O293   2.482       .  S
Cd292       O296   2.461       .  S
Cd292       O294   2.478       .  S
C295        O299   1.266       .  A
C295        C345   1.499       .  S
O300        C303   1.266       .  A
O300       Cd305   2.457       .  S
C301        O310   1.265       .  A
C301        O306   1.263       .  A
O302        C308   1.264       .  A
O302       Cd305   2.473       .  S
C303        O311   1.267       .  A
C303        C716   1.495       .  S
C304        O309   1.264       .  A
C304        O307   1.264       .  A
C304        C569   1.493       .  S
Cd305       O312   2.467       .  S
Cd305       O311   2.483       .  S
Cd305       O310   2.485       .  S
Cd305       O306   2.457       .  S
Cd305       O309   2.472       .  S
Cd305       O307   2.477       .  S
C308        O312   1.264       .  A
C313        C314   1.407       .  A
C313        C318   1.408       .  A
C313        C331   1.453       .  S
C314        C319   1.491       .  S
C314        C315   1.409       .  A
C315        C316   1.411       .  A
C315        C320   1.450       .  S
C316        C317   1.416       .  A
C316        C332   1.450       .  S
C317        C318   1.420       .  A
C318        C321   1.451       .  S
C319        C322   1.410       .  A
C319        C326   1.409       .  A
C320        N337   1.157       .  T
C321        N339   1.157       .  T
C322        C323   1.409       .  A
C322        C327   1.450       .  S
C323        C324   1.414       .  A
C323        C329   1.452       .  S
C324        C325   1.415       .  A
C325        C326   1.408       .  A
C325        C328   1.451       .  S
C326        C330   1.451       .  S
C327        N334   1.157       .  T
C328        N335   1.157       .  T
C329        N333   1.157       .  T
C330        N336   1.157       .  T
C331        N340   1.157       .  T
C332        N338   1.157       .  T
C341        C342   1.410       .  A
C341        C346   1.413       .  A
C341        C359   1.451       .  S
C342        C347   1.500       .  S
C342        C343   1.409       .  A
C343        C344   1.414       .  A
C343        C348   1.451       .  S
C344        C345   1.420       .  A
C344        C360   1.450       .  S
C345        C346   1.419       .  A
C346        C349   1.451       .  S
C347        C350   1.412       .  A
C347        C354   1.410       .  A
C348        N365   1.157       .  T
C349        N367   1.157       .  T
C350        C351   1.414       .  A
C350        C355   1.450       .  S
C351        C352   1.415       .  A
C351        C357   1.450       .  S
C352        C353   1.417       .  A
C353        C354   1.409       .  A
C353        C356   1.452       .  S
C354        C358   1.451       .  S
C355        N362   1.157       .  T
C356        N363   1.157       .  T
C357        N361   1.158       .  T
C358        N364   1.157       .  T
C359        N368   1.157       .  T
C360        N366   1.158       .  T
C369        C370   1.411       .  A
C369        C374   1.410       .  A
C369        C387   1.451       .  S
C370        C375   1.495       .  S
C370        C371   1.410       .  A
C371        C372   1.410       .  A
C371        C376   1.451       .  S
C372        C373   1.415       .  A
C372        C388   1.450       .  S
C373        C374   1.414       .  A
C374        C377   1.452       .  S
C375        C378   1.410       .  A
C375        C382   1.408       .  A
C376        N393   1.157       .  T
C377        N395   1.157       .  T
C378        C379   1.413       .  A
C378        C383   1.451   1_545  S
C379        C380   1.417       .  A
C379        C385   1.450   1_545  S
C380        C381   1.420       .  A
C381        C382   1.407       .  A
C381        C384   1.453       .  S
C382        C386   1.452       .  S
C383        N390   1.157       .  T
C384        N391   1.157       .  T
C385        N389   1.157       .  T
C386        N392   1.157       .  T
C387        N396   1.157       .  T
C388        N394   1.157       .  T
C397        C398   1.412   1_556  A
C397        C402   1.412       .  A
C397        C415   1.450   1_556  S
C398        C403   1.496       .  S
C398        C399   1.410   1_554  A
C399        C400   1.409       .  A
C399        C404   1.451   1_556  S
C400        C401   1.414       .  A
C400        C416   1.451       .  S
C401        C402   1.414       .  A
C402        C405   1.451       .  S
C403        C406   1.407       .  A
C403        C410   1.411       .  A
C404        N421   1.157       .  T
C405        N423   1.157       .  T
C406        C407   1.409       .  A
C406        C411   1.452       .  S
C407        C408   1.420       .  A
C407        C413   1.451       .  S
C408        C409   1.417       .  A
C409        C410   1.413       .  A
C409        C412   1.451       .  S
C410        C414   1.451       .  S
C411        N418   1.157       .  T
C412        N419   1.157       .  T
C413        N417   1.158       .  T
C414        N420   1.157       .  T
C415        N424   1.157       .  T
C416        N422   1.157       .  T
C425        C426   1.410       .  A
C425        C430   1.414       .  A
C425        C443   1.450       .  S
C426        C431   1.497       .  S
C426        C427   1.409       .  A
C427        C428   1.410       .  A
C427        C432   1.451       .  S
C428        C429   1.416       .  A
C428        C444   1.451       .  S
C429        C430   1.417       .  A
C430        C433   1.450       .  S
C431        C434   1.408       .  A
C431        C438   1.410       .  A
C432        N449   1.157       .  T
C433        N451   1.157       .  T
C434        C435   1.412       .  A
C434        C439   1.450       .  S
C435        C436   1.419       .  A
C435        C441   1.451       .  S
C436        C437   1.419       .  A
C437        C438   1.412       .  A
C437        C440   1.452       .  S
C438        C442   1.452       .  S
C439        N446   1.157       .  T
C440        N447   1.157       .  T
C441        N445   1.158       .  T
C442        N448   1.158       .  T
C443        N452   1.157       .  T
C444        N450   1.157       .  T
C453        C454   1.408       .  A
C453        C458   1.410       .  A
C453        C471   1.450       .  S
C454        C459   1.494       .  S
C454        C455   1.410       .  A
C455        C456   1.410       .  A
C455        C460   1.452       .  S
C456        C457   1.417       .  A
C456        C472   1.451       .  S
C457        C458   1.417       .  A
C458        C461   1.451       .  S
C459        C462   1.409       .  A
C459        C466   1.408       .  A
C460        N477   1.157       .  T
C461        N479   1.157       .  T
C462        C463   1.409       .  A
C462        C467   1.451       .  S
C463        C464   1.419       .  A
C463        C469   1.451       .  S
C464        C465   1.420       .  A
C465        C466   1.411       .  A
C465        C468   1.451       .  S
C466        C470   1.451       .  S
C467        N474   1.157       .  T
C468        N475   1.157       .  T
C469        N473   1.157       .  T
C470        N476   1.157       .  T
C471        N480   1.157       .  T
C472        N478   1.158       .  T
C481        C482   1.411       .  A
C481        C486   1.412       .  A
C481        C499   1.450       .  S
C482        C487   1.495       .  S
C482        C483   1.411       .  A
C483        C484   1.407       .  A
C483        C488   1.452       .  S
C484        C485   1.416       .  A
C484        C500   1.453       .  S
C485        C486   1.415       .  A
C486        C489   1.451       .  S
C487        C490   1.410       .  A
C487        C494   1.411       .  A
C488        N505   1.157       .  T
C489        N507   1.157       .  T
C490        C491   1.409       .  A
C490        C495   1.452       .  S
C491        C492   1.416       .  A
C491        C497   1.451       .  S
C492        C493   1.416       .  A
C493        C494   1.411       .  A
C493        C496   1.451       .  S
C494        C498   1.450       .  S
C495        N502   1.157       .  T
C496        N503   1.157       .  T
C497        N501   1.158       .  T
C498        N504   1.157       .  T
C499        N508   1.157       .  T
C500        N506   1.158       .  T
C509        C510   1.409       .  A
C509        C514   1.411       .  A
C509        C527   1.451       .  S
C510        C515   1.495       .  S
C510        C511   1.408       .  A
C511        C512   1.411       .  A
C511        C516   1.452       .  S
C512        C513   1.421       .  A
C512        C528   1.451       .  S
C513        C514   1.418       .  A
C514        C517   1.451       .  S
C515        C518   1.410   1_554  A
C515        C522   1.409       .  A
C516        N533   1.157       .  T
C517        N535   1.157       .  T
C518        C519   1.412       .  A
C518        C523   1.450   1_556  S
C519        C520   1.416       .  A
C519        C525   1.451       .  S
C520        C521   1.416       .  A
C521        C522   1.409   1_556  A
C521        C524   1.451       .  S
C522        C526   1.451       .  S
C523        N530   1.157       .  T
C524        N531   1.157       .  T
C525        N529   1.157       .  T
C526        N532   1.157       .  T
C527        N536   1.157       .  T
C528        N534   1.157       .  T
C537        C538   1.411       .  A
C537        C542   1.413       .  A
C537        C555   1.450       .  S
C538        C543   1.496       .  S
C538        C539   1.410       .  A
C539        C540   1.409       .  A
C539        C544   1.452       .  S
C540        C541   1.417       .  A
C540        C556   1.451       .  S
C541        C542   1.416       .  A
C542        C545   1.451       .  S
C543        C546   1.410       .  A
C543        C550   1.409       .  A
C544        N561   1.157       .  T
C545        N563   1.157       .  T
C546        C547   1.412       .  A
C546        C551   1.451       .  S
C547        C548   1.418       .  A
C547        C553   1.451       .  S
C548        C549   1.419       .  A
C549        C550   1.410       .  A
C549        C552   1.452       .  S
C550        C554   1.451       .  S
C551        N558   1.157       .  T
C552        N559   1.157       .  T
C553        N557   1.158       .  T
C554        N560   1.158       .  T
C555        N564   1.158       .  T
C556        N562   1.158       .  T
C565        C566   1.410       .  A
C565        C570   1.411       .  A
C565        C583   1.450       .  S
C566        C571   1.497       .  S
C566        C567   1.410       .  A
C567        C568   1.412       .  A
C567        C572   1.452       .  S
C568        C569   1.418       .  A
C568        C584   1.451       .  S
C569        C570   1.418       .  A
C570        C573   1.452       .  S
C571        C574   1.412       .  A
C571        C578   1.409       .  A
C572        N589   1.156       .  T
C573        N591   1.156       .  T
C574        C575   1.414       .  A
C574        C579   1.450       .  S
C575        C576   1.415       .  A
C575        C581   1.451       .  S
C576        C577   1.420       .  A
C577        C578   1.408       .  A
C577        C580   1.452       .  S
C578        C582   1.453       .  S
C579        N586   1.158       .  T
C580        N587   1.158       .  T
C581        N585   1.157       .  T
C582        N588   1.157       .  T
C583        N592   1.158       .  T
C584        N590   1.158       .  T
C593        C594   1.409       .  A
C593        C598   1.410       .  A
C593        C611   1.451   1_655  S
C594        C599   1.491       .  S
C594        C595   1.409       .  A
C595        C596   1.408       .  A
C595        C600   1.452       .  S
C596        C597   1.417       .  A
C596        C612   1.452       .  S
C597        C598   1.417       .  A
C598        C601   1.451   1_655  S
C599        C602   1.409   1_655  A
C599        C606   1.409       .  A
C600        N617   1.157       .  T
C601        N619   1.157       .  T
C602        C603   1.411   1_455  A
C602        C607   1.450       .  S
C603        C604   1.416       .  A
C603        C609   1.450   1_655  S
C604        C605   1.416       .  A
C605        C606   1.407       .  A
C605        C608   1.452       .  S
C606        C610   1.452       .  S
C607        N614   1.157       .  T
C608        N615   1.157       .  T
C609        N613   1.158       .  T
C610        N616   1.157       .  T
C611        N620   1.157       .  T
C612        N618   1.158       .  T
C621        C622   1.412   1_556  A
C621        C626   1.410       .  A
C621        C639   1.451   1_556  S
C622        C627   1.497       .  S
C622        C623   1.410       .  A
C623        C624   1.410   1_554  A
C623        C628   1.451       .  S
C624        C625   1.418       .  A
C624        C640   1.452       .  S
C625        C626   1.416       .  A
C626        C629   1.451       .  S
C627        C630   1.410       .  A
C627        C634   1.413       .  A
C628        N645   1.157       .  T
C629        N647   1.157       .  T
C630        C631   1.410       .  A
C630        C635   1.451       .  S
C631        C632   1.416       .  A
C631        C637   1.452       .  S
C632        C633   1.413       .  A
C633        C634   1.410       .  A
C633        C636   1.451       .  S
C634        C638   1.452       .  S
C635        N642   1.157       .  T
C636        N643   1.157       .  T
C637        N641   1.157       .  T
C638        N644   1.157       .  T
C639        N648   1.157       .  T
C640        N646   1.157       .  T
C649        C650   1.409       .  A
C649        C654   1.411       .  A
C649        C667   1.451       .  S
C650        C655   1.496       .  S
C650        C651   1.410       .  A
C651        C652   1.411       .  A
C651        C656   1.451       .  S
C652        C653   1.416       .  A
C652        C668   1.451       .  S
C653        C654   1.418       .  A
C654        C657   1.451       .  S
C655        C658   1.408       .  A
C655        C662   1.409       .  A
C656        N673   1.157       .  T
C657        N675   1.157       .  T
C658        C659   1.411       .  A
C658        C663   1.451       .  S
C659        C660   1.419       .  A
C659        C665   1.450       .  S
C660        C661   1.421       .  A
C661        C662   1.411       .  A
C661        C664   1.452       .  S
C662        C666   1.452       .  S
C663        N670   1.157       .  T
C664        N671   1.157       .  T
C665        N669   1.158       .  T
C666        N672   1.157       .  T
C667        N676   1.157       .  T
C668        N674   1.157       .  T
C677        C678   1.413       .  A
C677        C682   1.413       .  A
C677        C695   1.451       .  S
C678        C683   1.502       .  S
C678        C679   1.411       .  A
C679        C680   1.412       .  A
C679        C684   1.451       .  S
C680        C681   1.417       .  A
C680        C696   1.451       .  S
C681        C682   1.414       .  A
C682        C685   1.451       .  S
C683        C686   1.414   1_554  A
C683        C690   1.411   1_554  A
C684        N701   1.157       .  T
C685        N703   1.157       .  T
C686        C687   1.414       .  A
C686        C691   1.450   1_556  S
C687        C688   1.414       .  A
C687        C693   1.451       .  S
C688        C689   1.416       .  A
C689        C690   1.411       .  A
C689        C692   1.452       .  S
C690        C694   1.451   1_556  S
C691        N698   1.157       .  T
C692        N699   1.157       .  T
C693        N697   1.157       .  T
C694        N700   1.157       .  T
C695        N704   1.157       .  T
C696        N702   1.158       .  T
C705        C706   1.410       .  A
C705        C710   1.411       .  A
C705        C723   1.449       .  S
C706        C711   1.497       .  S
C706        C707   1.410       .  A
C707        C708   1.411       .  A
C707        C712   1.451       .  S
C708        C709   1.417       .  A
C708        C724   1.450       .  S
C709        C710   1.415       .  A
C710        C713   1.452       .  S
C711        C714   1.408       .  A
C711        C718   1.411       .  A
C712        N729   1.157       .  T
C713        N731   1.157       .  T
C714        C715   1.411       .  A
C714        C719   1.450       .  S
C715        C716   1.419       .  A
C715        C721   1.452       .  S
C716        C717   1.418       .  A
C717        C718   1.413       .  A
C717        C720   1.451       .  S
C718        C722   1.452       .  S
C719        N726   1.158       .  T
C720        N727   1.158       .  T
C721        N725   1.156       .  T
C722        N728   1.157       .  T
C723        N732   1.158       .  T
C724        N730   1.158       .  T
C733        C734   1.408       .  A
C733        C738   1.410       .  A
C733        C751   1.450       .  S
C734        C739   1.489       .  S
C734        C735   1.408       .  A
C735        C736   1.407       .  A
C735        C740   1.452       .  S
C736        C737   1.416       .  A
C736        C752   1.452       .  S
C737        C738   1.415       .  A
C738        C741   1.450       .  S
C739        C742   1.407       .  A
C739        C746   1.408       .  A
C740        N757   1.157       .  T
C741        N759   1.157       .  T
C742        C743   1.410       .  A
C742        C747   1.451       .  S
C743        C744   1.419       .  A
C743        C749   1.451       .  S
C744        C745   1.418       .  A
C745        C746   1.406       .  A
C745        C748   1.452       .  S
C746        C750   1.453       .  S
C747        N754   1.157       .  T
C748        N755   1.157       .  T
C749        N753   1.157       .  T
C750        N756   1.157       .  T
C751        N760   1.157       .  T
C752        N758   1.158       .  T
C761        C762   1.409       .  A
C761        C766   1.414       .  A
C761        C779   1.451       .  S
C762        C767   1.497   1_655  S
C762        C763   1.408   1_655  A
C763        C764   1.410   1_455  A
C763        C768   1.451       .  S
C764        C765   1.419       .  A
C764        C780   1.451       .  S
C765        C766   1.421       .  A
C766        C769   1.451       .  S
C767        C770   1.410       .  A
C767        C774   1.410       .  A
C768        N785   1.157       .  T
C769        N787   1.158       .  T
C770        C771   1.410       .  A
C770        C775   1.452   1_455  S
C771        C772   1.416       .  A
C771        C777   1.451       .  S
C772        C773   1.416       .  A
C773        C774   1.413       .  A
C773        C776   1.450       .  S
C774        C778   1.450       .  S
C775        N782   1.157       .  T
C776        N783   1.157       .  T
C777        N781   1.157       .  T
C778        N784   1.157       .  T
C779        N788   1.157       .  T
C780        N786   1.157       .  T
C789        C790   1.410       .  A
C789        C794   1.416       .  A
C789        C807   1.450       .  S
C790        C795   1.499       .  S
C790        C791   1.409       .  A
C791        C792   1.410       .  A
C791        C796   1.453       .  S
C792        C793   1.421       .  A
C792        C808   1.451       .  S
C793        C794   1.419       .  A
C794        C797   1.450       .  S
C795        C798   1.410       .  A
C795        C802   1.411       .  A
C796        N813   1.157       .  T
C797        N815   1.157       .  T
C798        C799   1.409       .  A
C798        C803   1.450       .  S
C799        C800   1.415       .  A
C799        C805   1.452       .  S
C800        C801   1.417       .  A
C801        C802   1.414       .  A
C801        C804   1.451       .  S
C802        C806   1.451       .  S
C803        N810   1.157       .  T
C804        N811   1.158       .  T
C805        N809   1.157       .  T
C806        N812   1.157       .  T
C807        N816   1.157       .  T
C808        N814   1.158       .  T
C817        C818   1.409       .  A
C817        C822   1.410       .  A
C817        C835   1.451   1_655  S
C818        C823   1.491   1_655  S
C818        C819   1.408       .  A
C819        C820   1.408       .  A
C819        C824   1.452       .  S
C820        C821   1.417       .  A
C820        C836   1.451       .  S
C821        C822   1.417       .  A
C822        C825   1.451   1_565  S
C823        C826   1.408       .  A
C823        C830   1.408       .  A
C824        N841   1.157       .  T
C825        N843   1.157       .  T
C826        C827   1.410       .  A
C826        C831   1.452       .  S
C827        C828   1.419       .  A
C827        C833   1.451       .  S
C828        C829   1.417       .  A
C829        C830   1.409       .  A
C829        C832   1.451       .  S
C830        C834   1.451   1_455  S
C831        N838   1.157       .  T
C832        N839   1.157       .  T
C833        N837   1.157       .  T
C834        N840   1.157       .  T
C835        N844   1.157       .  T
C836        N842   1.157       .  T
C845        C846   1.409       .  A
C845        C850   1.413       .  A
C845        C863   1.450       .  S
C846        C851   1.498       .  S
C846        C847   1.410       .  A
C847        C848   1.411       .  A
C847        C852   1.453       .  S
C848        C849   1.419       .  A
C848        C864   1.450       .  S
C849        C850   1.420       .  A
C850        C853   1.452       .  S
C851        C854   1.410       .  A
C851        C858   1.410       .  A
C852        N869   1.156       .  T
C853        N871   1.156       .  T
C854        C855   1.410       .  A
C854        C859   1.450       .  S
C855        C856   1.416       .  A
C855        C861   1.452       .  S
C856        C857   1.417       .  A
C857        C858   1.412       .  A
C857        C860   1.450       .  S
C858        C862   1.452       .  S
C859        N866   1.158       .  T
C860        N867   1.158       .  T
C861        N865   1.156       .  T
C862        N868   1.156       .  T
C863        N872   1.158       .  T
C864        N870   1.158       .  T
C873        C874   1.409       .  A
C873        C878   1.410       .  A
C873        C891   1.450       .  S
C874        C879   1.493       .  S
C874        C875   1.409       .  A
C875        C876   1.409       .  A
C875        C880   1.451       .  S
C876        C877   1.416       .  A
C876        C892   1.451       .  S
C877        C878   1.416       .  A
C878        C881   1.451       .  S
C879        C882   1.410       .  A
C879        C886   1.410       .  A
C880        N897   1.157       .  T
C881        N899   1.157       .  T
C882        C883   1.413       .  A
C882        C887   1.450       .  S
C883        C884   1.416       .  A
C883        C889   1.450       .  S
C884        C885   1.415       .  A
C885        C886   1.407       .  A
C885        C888   1.453       .  S
C886        C890   1.452       .  S
C887        N894   1.157       .  T
C888        N895   1.158       .  T
C889        N893   1.157       .  T
C890        N896   1.157       .  T
C891        N900   1.157       .  T
C892        N898   1.157       .  T
C901        C902   1.412   1_556  A
C901        C906   1.411       .  A
C901        C919   1.451   1_556  S
C902        C907   1.503       .  S
C902        C903   1.414   1_554  A
C903        C904   1.413       .  A
C903        C908   1.451   1_556  S
C904        C905   1.414       .  A
C904        C920   1.451       .  S
C905        C906   1.415       .  A
C906        C909   1.452       .  S
C907        C910   1.411       .  A
C907        C914   1.413       .  A
C908        N925   1.157       .  T
C909        N927   1.158       .  T
C910        C911   1.411       .  A
C910        C915   1.452       .  S
C911        C912   1.417       .  A
C911        C917   1.451       .  S
C912        C913   1.417       .  A
C913        C914   1.414       .  A
C913        C916   1.452       .  S
C914        C918   1.450       .  S
C915        N922   1.157       .  T
C916        N923   1.157       .  T
C917        N921   1.158       .  T
C918        N924   1.158       .  T
C919        N928   1.157       .  T
C920        N926   1.157       .  T
C929        C930   1.409       .  A
C929        C934   1.411       .  A
C929        C947   1.452       .  S
C930        C935   1.497       .  S
C930        C931   1.410       .  A
C931        C932   1.411       .  A
C931        C936   1.452       .  S
C932        C933   1.420       .  A
C932        C948   1.451   1_455  S
C933        C934   1.421       .  A
C934        C937   1.452       .  S
C935        C938   1.411       .  A
C935        C942   1.412       .  A
C936        N953   1.157       .  T
C937        N955   1.157       .  T
C938        C939   1.408       .  A
C938        C943   1.451       .  S
C939        C940   1.414       .  A
C939        C945   1.452       .  S
C940        C941   1.415       .  A
C941        C942   1.412       .  A
C941        C944   1.451       .  S
C942        C946   1.451       .  S
C943        N950   1.157       .  T
C944        N951   1.157       .  T
C945        N949   1.157       .  T
C946        N952   1.157       .  T
C947        N956   1.157       .  T
C948        N954   1.157       .  T
C957        C958   1.413       .  A
C957        C962   1.413       .  A
C957        C975   1.451       .  S
C958        C963   1.504       .  S
C958        C959   1.413       .  A
C959        C960   1.411       .  A
C959        C964   1.450       .  S
C960        C961   1.415       .  A
C960        C976   1.452       .  S
C961        C962   1.418       .  A
C962        C965   1.451       .  S
C963        C966   1.413       .  A
C963        C970   1.414       .  A
C964        N981   1.157       .  T
C965        N983   1.157       .  T
C966        C967   1.414       .  A
C966        C971   1.451       .  S
C967        C968   1.416       .  A
C967        C973   1.450       .  S
C968        C969   1.415       .  A
C969        C970   1.411       .  A
C969        C972   1.452       .  S
C970        C974   1.452       .  S
C971        N978   1.157       .  T
C972        N979   1.157       .  T
C973        N977   1.157       .  T
C974        N980   1.157       .  T
C975        N984   1.157       .  T
C976        N982   1.157       .  T
C985        C986   1.409       .  A
C985        C990   1.408       .  A
C985       C1003   1.451       .  S
C986        C991   1.488       .  S
C986        C987   1.408       .  A
C987        C988   1.408       .  A
C987        C992   1.451       .  S
C988        C989   1.417       .  A
C988       C1004   1.452       .  S
C989        C990   1.417       .  A
C990        C993   1.452       .  S
C991        C994   1.409       .  A
C991        C998   1.409       .  A
C992       N1009   1.157       .  T
C993       N1011   1.157       .  T
C994        C995   1.407       .  A
C994        C999   1.451       .  S
C995        C996   1.414       .  A
C995       C1001   1.451       .  S
C996        C997   1.414       .  A
C997        C998   1.409       .  A
C997       C1000   1.451       .  S
C998       C1002   1.451       .  S
C999       N1006   1.157       .  T
C1000      N1007   1.157       .  T
C1001      N1005   1.157       .  T
C1002      N1008   1.157       .  T
C1003      N1012   1.157       .  T
C1004      N1010   1.157       .  T
C1013      C1014   1.410       .  A
C1013      C1018   1.412       .  A
C1013      C1031   1.450       .  S
C1014      C1019   1.500       .  S
C1014      C1015   1.411       .  A
C1015      C1016   1.412       .  A
C1015      C1020   1.451       .  S
C1016      C1017   1.417       .  A
C1016      C1032   1.452       .  S
C1017      C1018   1.417       .  A
C1018      C1021   1.451       .  S
C1019      C1022   1.409       .  A
C1019      C1026   1.408       .  A
C1020      N1037   1.157       .  T
C1021      N1039   1.157       .  T
C1022      C1023   1.412       .  A
C1022      C1027   1.452       .  S
C1023      C1024   1.421       .  A
C1023      C1029   1.452       .  S
C1024      C1025   1.422       .  A
C1025      C1026   1.415       .  A
C1025      C1028   1.450       .  S
C1026      C1030   1.451       .  S
C1027      N1034   1.157       .  T
C1028      N1035   1.158       .  T
C1029      N1033   1.157       .  T
C1030      N1036   1.157       .  T
C1031      N1040   1.157       .  T
C1032      N1038   1.157       .  T
C1041      C1042   1.409       .  A
C1041      C1046   1.408       .  A
C1041      C1059   1.452       .  S
C1042      C1047   1.490       .  S
C1042      C1043   1.409       .  A
C1043      C1044   1.409       .  A
C1043      C1048   1.451       .  S
C1044      C1045   1.415       .  A
C1044      C1060   1.450       .  S
C1045      C1046   1.416       .  A
C1046      C1049   1.452       .  S
C1047      C1050   1.409       .  A
C1047      C1054   1.408       .  A
C1048      N1065   1.157       .  T
C1049      N1067   1.157       .  T
C1050      C1051   1.411       .  A
C1050      C1055   1.451       .  S
C1051      C1052   1.417       .  A
C1051      C1057   1.451       .  S
C1052      C1053   1.417       .  A
C1053      C1054   1.406       .  A
C1053      C1056   1.452       .  S
C1054      C1058   1.452       .  S
C1055      N1062   1.157       .  T
C1056      N1063   1.157       .  T
C1057      N1061   1.157       .  T
C1058      N1064   1.157       .  T
C1059      N1068   1.157       .  T
C1060      N1066   1.157       .  T
C1069      C1070   1.410       .  A
C1069      C1074   1.413       .  A
C1069      C1087   1.450       .  S
C1070      C1075   1.498       .  S
C1070      C1071   1.409       .  A
C1071      C1072   1.411       .  A
C1071      C1076   1.452       .  S
C1072      C1073   1.419       .  A
C1072      C1088   1.451       .  S
C1073      C1074   1.417       .  A
C1074      C1077   1.451       .  S
C1075      C1078   1.409       .  A
C1075      C1082   1.410   1_554  A
C1076      N1093   1.157       .  T
C1077      N1095   1.157       .  T
C1078      C1079   1.411   1_554  A
C1078      C1083   1.450       .  S
C1079      C1080   1.420       .  A
C1079      C1085   1.452       .  S
C1080      C1081   1.419       .  A
C1081      C1082   1.412       .  A
C1081      C1084   1.451       .  S
C1082      C1086   1.452   1_556  S
C1083      N1090   1.158       .  T
C1084      N1091   1.158       .  T
C1085      N1089   1.157       .  T
C1086      N1092   1.157       .  T
C1087      N1096   1.158       .  T
C1088      N1094   1.158       .  T
C1097      C1098   1.411       .  A
C1097      C1102   1.412       .  A
C1097      C1115   1.450       .  S
C1098      C1103   1.496       .  S
C1098      C1099   1.411       .  A
C1099      C1100   1.409       .  A
C1099      C1104   1.451       .  S
C1100      C1101   1.413       .  A
C1100      C1116   1.452       .  S
C1101      C1102   1.414       .  A
C1102      C1105   1.451       .  S
C1103      C1106   1.409   1_545  A
C1103      C1110   1.410       .  A
C1104      N1121   1.157       .  T
C1105      N1123   1.157   1_455  T
C1106      C1107   1.411       .  A
C1106      C1111   1.451       .  S
C1107      C1108   1.417       .  A
C1107      C1113   1.451       .  S
C1108      C1109   1.416       .  A
C1109      C1110   1.411   1_565  A
C1109      C1112   1.451       .  S
C1110      C1114   1.451       .  S
C1111      N1118   1.157       .  T
C1112      N1119   1.157       .  T
C1113      N1117   1.157       .  T
C1114      N1120   1.157       .  T
C1115      N1124   1.157       .  T
C1116      N1122   1.157       .  T
C1125      C1126   1.409       .  A
C1125      C1130   1.409       .  A
C1125      C1143   1.453       .  S
C1126      C1131   1.499       .  S
C1126      C1127   1.412       .  A
C1127      C1128   1.415       .  A
C1127      C1132   1.450       .  S
C1128      C1129   1.417       .  A
C1128      C1144   1.450       .  S
C1129      C1130   1.419       .  A
C1130      C1133   1.452       .  S
C1131      C1134   1.412       .  A
C1131      C1138   1.410       .  A
C1132      N1149   1.157       .  T
C1133      N1151   1.158       .  T
C1134      C1135   1.413       .  A
C1134      C1139   1.451       .  S
C1135      C1136   1.416       .  A
C1135      C1141   1.451       .  S
C1136      C1137   1.417       .  A
C1137      C1138   1.411       .  A
C1137      C1140   1.451       .  S
C1138      C1142   1.451       .  S
C1139      N1146   1.157       .  T
C1140      N1147   1.157       .  T
C1141      N1145   1.158       .  T
C1142      N1148   1.157       .  T
C1143      N1152   1.157       .  T
C1144      N1150   1.157       .  T
C1153      C1154   1.411       .  A
C1153      C1158   1.411       .  A
C1153      C1171   1.451       .  S
C1154      C1159   1.495       .  S
C1154      C1155   1.409       .  A
C1155      C1156   1.409       .  A
C1155      C1160   1.450       .  S
C1156      C1157   1.415       .  A
C1156      C1172   1.451       .  S
C1157      C1158   1.415       .  A
C1158      C1161   1.452       .  S
C1159      C1162   1.409   1_545  A
C1159      C1166   1.408       .  A
C1160      N1177   1.157       .  T
C1161      N1179   1.158       .  T
C1162      C1163   1.412       .  A
C1162      C1167   1.451       .  S
C1163      C1164   1.418       .  A
C1163      C1169   1.451       .  S
C1164      C1165   1.419       .  A
C1165      C1166   1.410   1_565  A
C1165      C1168   1.451       .  S
C1166      C1170   1.451       .  S
C1167      N1174   1.157       .  T
C1168      N1175   1.157       .  T
C1169      N1173   1.157       .  T
C1170      N1176   1.157       .  T
C1171      N1180   1.157   1_545  T
C1172      N1178   1.157       .  T
C1181      C1182   1.411       .  A
C1181      C1186   1.414       .  A
C1181      C1199   1.451       .  S
C1182      C1187   1.502       .  S
C1182      C1183   1.410       .  A
C1183      C1184   1.414       .  A
C1183      C1188   1.450       .  S
C1184      C1185   1.418       .  A
C1184      C1200   1.451       .  S
C1185      C1186   1.417       .  A
C1186      C1189   1.450       .  S
C1187      C1190   1.410       .  A
C1187      C1194   1.411       .  A
C1188      N1205   1.157       .  T
C1189      N1207   1.157       .  T
C1190      C1191   1.414       .  A
C1190      C1195   1.450       .  S
C1191      C1192   1.417       .  A
C1191      C1197   1.450       .  S
C1192      C1193   1.418       .  A
C1193      C1194   1.412       .  A
C1193      C1196   1.452       .  S
C1194      C1198   1.451       .  S
C1195      N1202   1.157       .  T
C1196      N1203   1.157       .  T
C1197      N1201   1.158       .  T
C1198      N1204   1.157       .  T
C1199      N1208   1.157       .  T
C1200      N1206   1.157       .  T
C1209      C1210   1.408       .  A
C1209      C1214   1.409       .  A
C1209      C1227   1.451       .  S
C1210      C1215   1.492       .  S
C1210      C1211   1.410       .  A
C1211      C1212   1.410       .  A
C1211      C1216   1.451       .  S
C1212      C1213   1.415       .  A
C1212      C1228   1.452       .  S
C1213      C1214   1.416       .  A
C1214      C1217   1.451       .  S
C1215      C1218   1.409       .  A
C1215      C1222   1.408       .  A
C1216      N1233   1.157       .  T
C1217      N1235   1.157       .  T
C1218      C1219   1.412       .  A
C1218      C1223   1.450       .  S
C1219      C1220   1.417       .  A
C1219      C1225   1.450       .  S
C1220      C1221   1.418       .  A
C1221      C1222   1.407       .  A
C1221      C1224   1.452       .  S
C1222      C1226   1.453       .  S
C1223      N1230   1.157       .  T
C1224      N1231   1.158       .  T
C1225      N1229   1.157       .  T
C1226      N1232   1.157       .  T
C1227      N1236   1.157       .  T
C1228      N1234   1.158       .  T
C1237      C1238   1.413   1_556  A
C1237      C1242   1.412       .  A
C1237      C1255   1.450       .  S
C1238      C1243   1.502       .  S
C1238      C1239   1.412   1_554  A
C1239      C1240   1.411       .  A
C1239      C1244   1.451   1_556  S
C1240      C1241   1.415       .  A
C1240      C1256   1.451       .  S
C1241      C1242   1.414       .  A
C1242      C1245   1.451       .  S
C1243      C1246   1.412       .  A
C1243      C1250   1.411       .  A
C1244      N1261   1.157       .  T
C1245      N1263   1.157       .  T
C1246      C1247   1.412       .  A
C1246      C1251   1.451       .  S
C1247      C1248   1.417       .  A
C1247      C1253   1.451       .  S
C1248      C1249   1.418       .  A
C1249      C1250   1.413       .  A
C1249      C1252   1.451       .  S
C1250      C1254   1.451       .  S
C1251      N1258   1.157       .  T
C1252      N1259   1.157       .  T
C1253      N1257   1.158       .  T
C1254      N1260   1.157       .  T
C1255      N1264   1.157       .  T
C1256      N1262   1.157       .  T
C1265      C1266   1.409       .  A
C1265      C1270   1.410       .  A
C1265      C1283   1.451       .  S
C1266      C1271   1.494       .  S
C1266      C1267   1.409       .  A
C1267      C1268   1.410       .  A
C1267      C1272   1.451       .  S
C1268      C1269   1.417       .  A
C1268      C1284   1.451       .  S
C1269      C1270   1.417       .  A
C1270      C1273   1.452       .  S
C1271      C1274   1.409       .  A
C1271      C1278   1.409       .  A
C1272      N1289   1.157       .  T
C1273      N1291   1.157       .  T
C1274      C1275   1.411       .  A
C1274      C1279   1.451       .  S
C1275      C1276   1.418       .  A
C1275      C1281   1.452       .  S
C1276      C1277   1.415       .  A
C1277      C1278   1.409       .  A
C1277      C1280   1.451       .  S
C1278      C1282   1.451       .  S
C1279      N1286   1.157       .  T
C1280      N1287   1.157       .  T
C1281      N1285   1.157       .  T
C1282      N1288   1.157       .  T
C1283      N1292   1.157       .  T
C1284      N1290   1.157       .  T
C1293      C1294   1.413       .  A
C1293      C1298   1.417       .  A
C1293      C1311   1.450       .  S
C1294      C1299   1.504       .  S
C1294      C1295   1.412       .  A
C1295      C1296   1.409       .  A
C1295      C1300   1.453       .  S
C1296      C1297   1.418       .  A
C1296      C1312   1.452       .  S
C1297      C1298   1.417       .  A
C1298      C1301   1.450       .  S
C1299      C1302   1.412       .  A
C1299      C1306   1.413       .  A
C1300      N1317   1.157       .  T
C1301      N1319   1.157       .  T
C1302      C1303   1.414       .  A
C1302      C1307   1.451       .  S
C1303      C1304   1.417       .  A
C1303      C1309   1.451       .  S
C1304      C1305   1.415       .  A
C1305      C1306   1.412       .  A
C1305      C1308   1.451       .  S
C1306      C1310   1.451       .  S
C1307      N1314   1.157       .  T
C1308      N1315   1.157       .  T
C1309      N1313   1.157       .  T
C1310      N1316   1.157       .  T
C1311      N1320   1.157       .  T
C1312      N1318   1.157       .  T
C1321      C1322   1.410       .  A
C1321      C1326   1.409       .  A
C1321      C1339   1.451       .  S
C1322      C1327   1.498       .  S
C1322      C1323   1.412       .  A
C1323      C1324   1.414       .  A
C1323      C1328   1.450       .  S
C1324      C1325   1.415       .  A
C1324      C1340   1.451       .  S
C1325      C1326   1.415       .  A
C1326      C1329   1.452       .  S
C1327      C1330   1.409       .  A
C1327      C1334   1.411   1_554  A
C1328      N1345   1.157       .  T
C1329      N1347   1.157       .  T
C1330      C1331   1.411   1_554  A
C1330      C1335   1.451       .  S
C1331      C1332   1.419       .  A
C1331      C1337   1.452       .  S
C1332      C1333   1.417       .  A
C1333      C1334   1.412       .  A
C1333      C1336   1.451       .  S
C1334      C1338   1.451       .  S
C1335      N1342   1.157       .  T
C1336      N1343   1.158       .  T
C1337      N1341   1.157       .  T
C1338      N1344   1.157   1_556  T
C1339      N1348   1.157       .  T
C1340      N1346   1.157       .  T
C1349      C1350   1.410       .  A
C1349      C1354   1.412       .  A
C1349      C1367   1.450       .  S
C1350      C1355   1.495       .  S
C1350      C1351   1.411       .  A
C1351      C1352   1.410       .  A
C1351      C1356   1.451       .  S
C1352      C1353   1.414       .  A
C1352      C1368   1.451       .  S
C1353      C1354   1.416       .  A
C1354      C1357   1.451       .  S
C1355      C1358   1.410       .  A
C1355      C1362   1.410       .  A
C1356      N1373   1.157       .  T
C1357      N1375   1.157       .  T
C1358      C1359   1.411   1_565  A
C1358      C1363   1.451       .  S
C1359      C1360   1.416   1_545  A
C1359      C1365   1.451       .  S
C1360      C1361   1.415       .  A
C1361      C1362   1.410       .  A
C1361      C1364   1.451       .  S
C1362      C1366   1.450       .  S
C1363      N1370   1.157       .  T
C1364      N1371   1.157       .  T
C1365      N1369   1.157       .  T
C1366      N1372   1.157       .  T
C1367      N1376   1.157       .  T
C1368      N1374   1.157       .  T
C1377      C1378   1.410       .  A
C1377      C1382   1.413       .  A
C1377      C1395   1.450       .  S
C1378      C1383   1.497       .  S
C1378      C1379   1.410       .  A
C1379      C1380   1.411       .  A
C1379      C1384   1.451       .  S
C1380      C1381   1.417       .  A
C1380      C1396   1.451       .  S
C1381      C1382   1.417       .  A
C1382      C1385   1.451       .  S
C1383      C1386   1.412       .  A
C1383      C1390   1.409       .  A
C1384      N1401   1.157       .  T
C1385      N1403   1.157       .  T
C1386      C1387   1.414       .  A
C1386      C1391   1.449       .  S
C1387      C1388   1.413       .  A
C1387      C1393   1.451       .  S
C1388      C1389   1.415       .  A
C1389      C1390   1.407       .  A
C1389      C1392   1.452       .  S
C1390      C1394   1.452       .  S
C1391      N1398   1.157       .  T
C1392      N1399   1.157       .  T
C1393      N1397   1.157       .  T
C1394      N1400   1.157       .  T
C1395      N1404   1.157       .  T
C1396      N1402   1.158       .  T
C1405      C1406   1.409       .  A
C1405      C1410   1.407       .  A
C1405      C1423   1.451       .  S
C1406      C1411   1.491       .  S
C1406      C1407   1.409       .  A
C1407      C1408   1.410       .  A
C1407      C1412   1.450       .  S
C1408      C1409   1.415       .  A
C1408      C1424   1.451       .  S
C1409      C1410   1.415       .  A
C1410      C1413   1.452       .  S
C1411      C1414   1.408       .  A
C1411      C1418   1.408       .  A
C1412      N1429   1.157       .  T
C1413      N1431   1.157       .  T
C1414      C1415   1.408       .  A
C1414      C1419   1.452       .  S
C1415      C1416   1.417       .  A
C1415      C1421   1.452       .  S
C1416      C1417   1.417       .  A
C1417      C1418   1.411       .  A
C1417      C1420   1.451       .  S
C1418      C1422   1.451       .  S
C1419      N1426   1.157       .  T
C1420      N1427   1.157       .  T
C1421      N1425   1.157       .  T
C1422      N1428   1.157       .  T
C1423      N1432   1.157       .  T
C1424      N1430   1.157       .  T
