geometry optimzed in LAMMPS
_audit_creation_date              2020-11-30 
_audit_creation_method            'lammps2cif' 
_symmetry_space_group_name_H-M    'P1' 
_symmetry_Int_Tables_number       1 
_symmetry_cell_setting            triclinic 
loop_ 
_symmetry_equiv_pos_as_xyz 
  x,y,z 
_cell_length_a                    27.00564739 
_cell_length_b                    26.932852612933523 
_cell_length_c                    20.92290185806849 
_cell_angle_alpha                 90.88037299986362 
_cell_angle_beta                  90.0707806144173 
_cell_angle_gamma                 120.43691721180434 
loop_ 
_atom_site_label 
_atom_site_type_symbol 
_atom_site_fract_x 
_atom_site_fract_y 
_atom_site_fract_z 
_atom_site_charge 
N1          N  0.20948096  0.96228367  0.12967492    -0.01800
C2          C  0.19021282  0.91194837  0.16101087     0.00800
C3          C  0.20647459  0.92358320  0.22491403    -0.22100
C4          C  0.24019734  0.98197184  0.23197867    -0.22300
C5          C  0.24269493  0.00480023  0.17257157     0.00700
H6          H  0.20282217  0.89297133  0.26024420     0.14500
H7          H  0.26545634  0.00419715  0.27410804     0.14500
N8          N  0.64939211  0.40710201  0.13621280    -0.01800
C9          C  0.67121996  0.45880564  0.10712550     0.00800
C10         C  0.65726459  0.44877767  0.04234521    -0.22100
C11         C  0.62223948  0.39046141  0.03346656    -0.22300
C12         C  0.61665491  0.36599638  0.09214415     0.00700
H13         H  0.66150716  0.48007474  0.00769443     0.14500
H14         H  0.59537790  0.36966000  0.99199671     0.14500
N15         N  0.13278440  0.18449547  0.12707357    -0.01800
C16         C  0.18509433  0.21774337  0.15510236     0.00800
C17         C  0.17840390  0.23237376  0.21700538    -0.22100
C18         C  0.12083852  0.20936839  0.22621805    -0.22300
C19         C  0.09376628  0.17997377  0.17073940     0.00700
H20         H  0.21178584  0.26412036  0.24820088     0.14500
H21         H  0.10123903  0.21908282  0.26559149     0.14500
N22         N  0.68869034  0.17105411  0.16470987    -0.01800
C23         C  0.63425463  0.13689582  0.14230002     0.00800
C24         C  0.63610326  0.12438551  0.07805854    -0.22100
C25         C  0.69285657  0.14775433  0.06268056    -0.22300
C26         C  0.72427782  0.17526681  0.11683940     0.00700
H27         H  0.60071424  0.09219744  0.04920636     0.14500
H28         H  0.70911437  0.13710806  0.02070071     0.14500
N29         N  0.92320403  0.45560243  0.14849721    -0.01800
C30         C  0.95258069  0.43190302  0.12190805     0.00800
C31         C  0.95877094  0.44346370  0.05697337    -0.22100
C32         C  0.93753171  0.47918740  0.04531293    -0.22300
C33         C  0.91684630  0.48678470  0.10242278     0.00700
H34         H  0.98588741  0.43663115  0.02427006     0.14500
H35         H  0.94455208  0.50397481  0.00260767     0.14500
N36         N  0.91430389  0.88903240  0.14370364    -0.01800
C37         C  0.88717485  0.91260026  0.17561211     0.00800
C38         C  0.88531289  0.90071784  0.24026535    -0.22100
C39         C  0.90818506  0.86582324  0.24720164    -0.22300
C40         C  0.92426375  0.85821742  0.18709788     0.00700
H41         H  0.86090828  0.90769386  0.27665749     0.14500
H42         H  0.90604111  0.84232997  0.28951706     0.14500
C43         C  0.37583421  0.68919532  0.15254135     0.04000
C44         C  0.36173925  0.63110364  0.14882257     0.04000
C45         C  0.40588129  0.61739999  0.14594571     0.04000
C46         C  0.46419460  0.66179237  0.15069393     0.04000
C47         C  0.47810046  0.71990239  0.15547835     0.04000
C48         C  0.43388387  0.73328614  0.15916053     0.04000
O49         O  0.81138818  0.33762693  0.43836353    -0.76800
C50         C  0.79127704  0.48556202  0.40690583     0.84200
O51         O  0.61459915  0.27346432  0.35375568    -0.77900
O52         O  0.72447347  0.43441774  0.21059182    -0.79400
O53         O  0.86965792  0.38123074  0.22022383    -0.79200
O54         O  0.84335795  0.30621467  0.35864110    -0.77800
Zn55       Zn  0.75594193  0.35806037  0.39951085     1.55700
O56         O  0.85683982  0.45689507  0.21962674    -0.79200
Cd57       Cd  0.80568207  0.32315534  0.28077925     1.59700
Cd58       Cd  0.67304757  0.30122503  0.27777170     1.59600
O59         O  0.75782848  0.24767778  0.22748379    -0.79200
O60         O  0.75465475  0.35410054  0.30796454    -1.89700
Cd61       Cd  0.78406532  0.43401820  0.27409948     1.59900
O62         O  0.66762543  0.23007661  0.22902145    -0.79200
O63         O  0.79925914  0.49461984  0.34712636    -0.77800
C64         C  0.62615626  0.27843165  0.41348641     0.84700
C65         C  0.84161263  0.31675094  0.41796799     0.84300
O66         O  0.77610989  0.43653550  0.43003738    -0.76800
C67         C  0.88291865  0.43102981  0.20018368     0.85200
O68         O  0.67773775  0.30631672  0.43424097    -0.76900
C69         C  0.70502661  0.21713155  0.21096981     0.85300
C70         C  0.67522698  0.39524914  0.18996664     0.85600
O71         O  0.65078183  0.34409570  0.21155583    -0.79300
N72         N  0.60980049  0.83763625  0.57707349    -0.01800
C73         C  0.65678087  0.83441390  0.59461528     0.00800
C74         C  0.69591978  0.88372595  0.62819742    -0.22100
C75         C  0.67522233  0.92039769  0.62771177    -0.22300
C76         C  0.62372670  0.89185120  0.59507068     0.00700
H77         H  0.73930542  0.89562788  0.64191753     0.14500
H78         H  0.69810912  0.96522131  0.64289501     0.14500
N79         N  0.58112559  0.25396695  0.45995495    -0.01800
C80         C  0.55171141  0.28055848  0.47738202     0.00800
C81         C  0.54800179  0.28121042  0.54362134    -0.22100
C82         C  0.57108804  0.25004810  0.56684236    -0.22300
C83         C  0.58983822  0.23272322  0.51440465     0.00700
H84         H  0.52221269  0.29373336  0.57150862     0.14500
H85         H  0.56766491  0.23576804  0.61551462     0.14500
N86         N  0.36574182  0.53857403  0.47076992    -0.01800
C87         C  0.31700128  0.51758496  0.43506162     0.00800
C88         C  0.33195307  0.53906980  0.37362670    -0.22100
C89         C  0.39035688  0.56252442  0.36887879    -0.22300
C90         C  0.40910383  0.55786909  0.42835687     0.00700
H91         H  0.30305253  0.52492411  0.33282948     0.14500
H92         H  0.41424085  0.57151171  0.32503992     0.14500
N93         N  0.79613319  0.52969667  0.45021640    -0.01800
C94         C  0.84425331  0.56142862  0.48635560     0.00800
C95         C  0.82936225  0.56442083  0.54914240    -0.22100
C96         C  0.77071924  0.53672020  0.55103085    -0.22300
C97         C  0.75148155  0.51711070  0.48951948     0.00700
H98         H  0.85781260  0.59151411  0.58725992     0.14500
H99         H  0.74555444  0.53709576  0.59106655     0.14500
N100        N  0.30579322  0.75412750  0.51215869    -0.01800
C101        C  0.33251946  0.80610456  0.48306771     0.00800
C102        C  0.32648334  0.79743354  0.41706537    -0.22100
C103        C  0.29034636  0.73973132  0.40588558    -0.22300
C104        C  0.27725817  0.71477212  0.46490808     0.00700
H105        H  0.33724638  0.82998290  0.38141552     0.14500
H106        H  0.26946585  0.71970013  0.36087433     0.14500
N107        N  0.87363934  0.30466174  0.46385792    -0.01800
C108        C  0.85280410  0.25141016  0.48829852     0.00800
C109        C  0.86671637  0.25626989  0.55280852    -0.22100
C110        C  0.89970182  0.31378058  0.56735380    -0.22300
C111        C  0.90452612  0.34271042  0.51155894     0.00700
H112        H  0.86166822  0.22204473  0.58352704     0.14500
H113        H  0.92348489  0.33162679  0.61155776     0.14500
C114        C  0.13085687  0.01479868  0.46731006     0.04000
C115        C  0.07253309  0.97080453  0.46810546     0.04000
C116        C  0.02881166  0.98507153  0.46654033     0.04000
C117        C  0.04356162  0.04336465  0.46154502     0.04000
C118        C  0.10204361  0.08746991  0.46040444     0.04000
C119        C  0.14537555  0.07271127  0.46062683     0.04000
N120        N  0.53907856  0.60467426  0.71511281    -0.01800
C121        C  0.52815984  0.55559366  0.68333218     0.00800
C122        C  0.56769507  0.56924949  0.63466708    -0.22100
C123        C  0.60852587  0.62595543  0.64298808    -0.22300
C124        C  0.59140229  0.64580635  0.69451446     0.00700
H125        H  0.57423847  0.53923626  0.60640175     0.14500
H126        H  0.65042201  0.64739136  0.62101792     0.14500
N127        N  0.96472206  0.04880659  0.81975185    -0.01800
C128        C  0.98308459  0.09981272  0.79058243     0.00800
C129        C  0.97048098  0.08974908  0.72562565    -0.22100
C130        C  0.94108358  0.03115774  0.71563968    -0.22300
C131        C  0.93720478  0.00713359  0.77445286     0.00700
H132        H  0.97340881  0.12060675  0.69106971     0.14500
H133        H  0.91861638  0.00874363  0.67213281     0.14500
N134        N  0.44280153  0.82230131  0.85138595    -0.01800
C135        C  0.49297166  0.85509157  0.88373476     0.00800
C136        C  0.48067791  0.86073008  0.94680037    -0.22100
C137        C  0.42199773  0.83551700  0.95094135    -0.22300
C138        C  0.39976542  0.81361232  0.89092993     0.00700
H139        H  0.51096278  0.88979105  0.98245364     0.14500
H140        H  0.39925704  0.84163852  0.99001154     0.14500
N141        N  0.01549194  0.83292927  0.82271210    -0.01800
C142        C  0.96331542  0.80438711  0.79287714     0.00800
C143        C  0.97204091  0.80548688  0.72712941    -0.22100
C144        C  0.02979580  0.82829886  0.71771303    -0.22300
C145        C  0.05510410  0.84250389  0.77748817     0.00700
H146        H  0.93983851  0.78179593  0.69053384     0.14500
H147        H  0.04933772  0.82613474  0.67342155     0.14500
N148        N  0.24207836  0.11067368  0.81941293    -0.01800
C149        C  0.27131097  0.08728204  0.79207795     0.00800
C150        C  0.27539314  0.09743592  0.72692290    -0.22100
C151        C  0.25265767  0.13200785  0.71576275    -0.22300
C152        C  0.23364142  0.14065788  0.77360473     0.00700
H153        H  0.30244997  0.09109359  0.69364043     0.14500
H154        H  0.25921147  0.15673482  0.67319941     0.14500
N155        N  0.24368205  0.55078621  0.80920906    -0.01800
C156        C  0.21113584  0.56781373  0.84193113     0.00800
C157        C  0.20674977  0.55109077  0.90507535    -0.22100
C158        C  0.23319624  0.51938255  0.90989291    -0.22300
C159        C  0.25448249  0.51864073  0.85020527     0.00700
H160        H  0.17876736  0.55267507  0.94104021     0.14500
H161        H  0.22985873  0.49306869  0.95007660     0.14500
C162        C  0.69905310  0.34194781  0.81472040     0.04000
C163        C  0.75766380  0.38540117  0.81600495     0.04000
C164        C  0.80046688  0.36990249  0.81812643     0.04000
C165        C  0.78441638  0.31117644  0.82285475     0.04000
C166        C  0.72572333  0.26795970  0.82408405     0.04000
C167        C  0.68312953  0.28359924  0.82142797     0.04000
O168        O  0.14328741  0.99132898  0.10888620    -0.76800
C169        C  0.12077915  0.13775982  0.08394858     0.84200
O170        O  0.94275680  0.91378496  0.03687914    -0.77900
O171        O  0.04196645  0.08103137  0.89159878    -0.79400
O172        O  0.19300285  0.03687612  0.89291784    -0.79200
O173        O  0.17099153  0.95781711  0.02694250    -0.77800
Zn174      Zn  0.08415134  0.00954406  0.07631304     1.55700
O175        O  0.17514208  0.10919464  0.89156855    -0.79200
Cd176      Cd  0.13045398  0.97575666  0.95240053     1.59700
Cd177      Cd  0.99704249  0.94859401  0.95806463     1.59600
O178        O  0.08248431  0.90386837  0.89329183    -0.79200
O179        O  0.07916822  0.00446277  0.98473689    -1.89700
Cd180      Cd  0.10509645  0.08379274  0.95096978     1.59900
O181        O  0.99129810  0.88227321  0.89903955    -0.79200
O182        O  0.12485363  0.14530778  0.02377004    -0.77800
C183        C  0.95661482  0.92037312  0.09605199     0.84700
C184        C  0.17280031  0.97035143  0.08631751     0.84300
O185        O  0.10552924  0.08888191  0.10777808    -0.76800
C186        C  0.20315339  0.08547513  0.87201015     0.85200
O187        O  0.00816956  0.95399306  0.11489197    -0.76900
C188        C  0.02985730  0.87336307  0.87569658     0.85300
C189        C  0.99221087  0.04052306  0.87427354     0.85600
O190        O  0.96937344  0.99048907  0.89836133    -0.79300
O191        O  0.40660932  0.63055735  0.51813337    -0.76800
C192        C  0.33573555  0.73928874  0.55802587     0.84200
O193        O  0.54597077  0.78241133  0.65571302    -0.77900
O194        O  0.38903357  0.76692162  0.76215884    -0.79400
O195        O  0.31444640  0.56532740  0.73448649    -0.79200
O196        O  0.35176200  0.55485306  0.57843022    -0.77800
Zn197      Zn  0.42786468  0.70357573  0.56963178     1.55700
O198        O  0.28645835  0.63037655  0.74102425    -0.79200
Cd199      Cd  0.37855772  0.59835306  0.66624724     1.59700
Cd200      Cd  0.48002116  0.72427767  0.71104541     1.59600
O201        O  0.44679572  0.58740430  0.69093759    -0.79200
O202        O  0.40888848  0.68282903  0.65819507    -1.89700
Cd203      Cd  0.35061618  0.70168982  0.69168324     1.59900
O204        O  0.50845914  0.66974517  0.74048163    -0.79200
O205        O  0.31801978  0.72784607  0.61563432    -0.77800
C206        C  0.55396175  0.79246024  0.59626014     0.84700
C207        C  0.37473375  0.57604628  0.52495096     0.84300
O208        O  0.37718708  0.73345471  0.53777342    -0.76800
C209        C  0.28190496  0.58264149  0.75773042     0.85200
O210        O  0.51337112  0.76518748  0.55549105    -0.76900
C211        C  0.49511723  0.62002347  0.71855866     0.85300
C212        C  0.43495334  0.78653758  0.79593462     0.85600
O213        O  0.47229881  0.77193813  0.78464016    -0.79300
C214        C  0.95643814  0.47257094  0.86259668    -0.26500
C215        C  0.98051433  0.49576977  0.80301041     0.07100
C216        C  0.94416638  0.47939063  0.74899208     0.26700
C217        C  0.88557040  0.43884707  0.75427392    -0.11000
C218        C  0.86211439  0.41500187  0.81364350    -0.25000
C219        C  0.89771443  0.43302969  0.86801780     0.37500
C220        C  0.04406271  0.53099678  0.79736916     0.07100
F221        F  0.96536078  0.50241130  0.69123530    -0.18800
H222        H  0.85850904  0.42540643  0.71186618     0.16900
F223        F  0.87574173  0.41111922  0.92595255    -0.22500
H224        H  0.98361804  0.48341389  0.90466178     0.18700
C225        C  0.07703959  0.57482254  0.84250643     0.26700
C226        C  0.13562070  0.59452655  0.85002634    -0.11000
C227        C  0.16220561  0.57062862  0.81310149    -0.25000
C228        C  0.13118043  0.53375635  0.76122578     0.37600
C229        C  0.07243365  0.51378090  0.75398286    -0.26700
F230        F  0.05160192  0.59463708  0.88327403    -0.18800
H231        H  0.15863775  0.62355836  0.88972803     0.16900
F232        F  0.15503353  0.51045436  0.72309436    -0.22500
H233        H  0.04808643  0.48023464  0.71860398     0.18700
C234        C  0.40527570  0.08018055  0.80847115    -0.26500
C235        C  0.43880334  0.13084612  0.84490267     0.07100
C236        C  0.41108192  0.15524711  0.87882718     0.26700
C237        C  0.35242693  0.13383099  0.86947428    -0.11000
C238        C  0.32082004  0.08884074  0.82501817    -0.25000
C239        C  0.34659653  0.05915930  0.79857539     0.37500
C240        C  0.50240165  0.16315686  0.83942539     0.07100
F241        F  0.44170345  0.20423772  0.91448067    -0.18800
H242        H  0.33380217  0.15745910  0.89080310     0.16900
F243        F  0.31667485  0.01402260  0.75742111    -0.22500
H244        H  0.42544122  0.05960938  0.78352686     0.18700
C245        C  0.52814173  0.17674313  0.77865864     0.26700
C246        C  0.58729244  0.21427733  0.77311520    -0.11000
C247        C  0.62156899  0.23918349  0.82771640    -0.25000
C248        C  0.59641402  0.22493283  0.88836139     0.37600
C249        C  0.53741833  0.18680006  0.89411768    -0.26700
F250        F  0.49567142  0.15694777  0.72448949    -0.18800
H251        H  0.60612789  0.22582894  0.72618314     0.16900
F252        F  0.62853934  0.25017503  0.94178047    -0.22500
H253        H  0.51871262  0.17730117  0.94125588     0.18700
C254        C  0.29005515  0.40055562  0.86266983    -0.26500
C255        C  0.26115803  0.36617751  0.80868717     0.07100
C256        C  0.23780366  0.38716284  0.76362655     0.26700
C257        C  0.23999357  0.43957703  0.77478583    -0.11000
C258        C  0.26593024  0.47225641  0.83065127    -0.25000
C259        C  0.29277265  0.45321496  0.87341032     0.37500
C260        C  0.25339841  0.30768535  0.80129348     0.07100
F261        F  0.21159713  0.35634294  0.70956752    -0.18800
H262        H  0.21842317  0.45290289  0.74146705     0.16900
F263        F  0.31920437  0.48426242  0.92723000    -0.22500
H264        H  0.30835886  0.38547835  0.89818220     0.18700
C265        C  0.29986527  0.29872305  0.81061073     0.26700
C266        C  0.29188738  0.24349383  0.80421290    -0.11000
C267        C  0.23786754  0.19639764  0.78765305    -0.25000
C268        C  0.19123157  0.20476235  0.77859986     0.37600
C269        C  0.19889732  0.26001897  0.78606383    -0.26700
F270        F  0.35344086  0.34357967  0.82347810    -0.18800
H271        H  0.32847336  0.23762217  0.81009716     0.16900
F272        F  0.13871948  0.15979494  0.76214034    -0.22500
H273        H  0.16224049  0.26564122  0.77996698     0.18700
C274        C  0.88670541  0.66224038  0.87633194    -0.26500
C275        C  0.84092140  0.63057674  0.83323280     0.07100
C276        C  0.82660333  0.66094488  0.79002720     0.26700
C277        C  0.86262003  0.72044636  0.78357397    -0.11000
C278        C  0.91385525  0.75092630  0.81967968    -0.25000
C279        C  0.92258367  0.72190213  0.87021580     0.37500
C280        C  0.81366509  0.56661912  0.82833646     0.07100
F281        F  0.77999059  0.63253903  0.75091461    -0.18800
H282        H  0.85316895  0.74153590  0.74588973     0.16900
F283        F  0.96893582  0.74943801  0.90969701    -0.22500
H284        H  0.89776730  0.64021618  0.91144933     0.18700
C285        C  0.80959504  0.53946274  0.76869416     0.26700
C286        C  0.78959298  0.48035438  0.76467512    -0.11000
C287        C  0.77425122  0.44724441  0.81988361    -0.25000
C288        C  0.77734984  0.47373293  0.87938651     0.37600
C289        C  0.79692530  0.53289621  0.88351575    -0.26700
F290        F  0.82827921  0.57060335  0.71459815    -0.18800
H291        H  0.78772807  0.46066055  0.71854520     0.16900
F292        F  0.76286883  0.44258019  0.93362937    -0.22500
H293        H  0.79997769  0.55261251  0.92998021     0.18700
C294        C  0.66864132  0.11723029  0.88565705    -0.26500
C295        C  0.66030451  0.08525936  0.82889857     0.07100
C296        C  0.67838760  0.11470246  0.77087075     0.26700
C297        C  0.70168532  0.17455732  0.76963571    -0.11000
C298        C  0.70815341  0.20592065  0.82637498    -0.25000
C299        C  0.69314610  0.17709297  0.88460115     0.37500
C300        C  0.62614017  0.02123474  0.83040473     0.07100
F301        F  0.67246534  0.08528819  0.71547373    -0.18800
H302        H  0.71328676  0.19629470  0.72428661     0.16900
F303        F  0.70007798  0.20679728  0.93999531    -0.22500
H304        H  0.65339857  0.09523836  0.93043396     0.18700
C305        C  0.63726597  0.99029478  0.87623866     0.26700
C306        C  0.59655947  0.93250903  0.88766724    -0.11000
C307        C  0.54375079  0.90482525  0.85429452    -0.25000
C308        C  0.53553867  0.93429194  0.80397814     0.37600
C309        C  0.57644030  0.99172651  0.79225623    -0.26700
F310        F  0.68568247  0.01703554  0.91288389    -0.18800
H311        H  0.60402245  0.91100075  0.92665373     0.16900
F312        F  0.48513630  0.91038471  0.77093622    -0.22500
H313        H  0.56663634  0.01461325  0.75698037     0.18700
C314        C  0.30895839  0.87427131  0.83620036    -0.26500
C315        C  0.25515249  0.82450370  0.82778516     0.07100
C316        C  0.24952068  0.77009874  0.83652711     0.26700
C317        C  0.29669352  0.76591462  0.85666054    -0.11000
C318        C  0.34982409  0.81599382  0.86725864    -0.25000
C319        C  0.35600268  0.87014659  0.85570685     0.37500
C320        C  0.20462064  0.83019841  0.81451894     0.07100
F321        F  0.19840348  0.72129798  0.82553776    -0.18800
H322        H  0.29174913  0.72395673  0.86441721     0.16900
F323        F  0.40743526  0.91920433  0.86492277    -0.22500
H324        H  0.31409387  0.91646870  0.82972930     0.18700
C325        C  0.15729847  0.80496526  0.85539726     0.26700
C326        C  0.11012316  0.81140451  0.84410017    -0.11000
C327        C  0.10909630  0.84326131  0.79210808    -0.25000
C328        C  0.15702033  0.86975640  0.75189365     0.37600
C329        C  0.20461906  0.86345504  0.76336421    -0.26700
F330        F  0.15701446  0.77476998  0.90692936    -0.18800
H331        H  0.07365360  0.79011836  0.87543054     0.16900
F332        F  0.15783613  0.90161978  0.70184180    -0.22500
H333        H  0.24123588  0.88395436  0.73196439     0.18700
C334        C  0.88982473  0.26321223  0.77929825    -0.26500
C335        C  0.90610645  0.25386703  0.83989493     0.07100
C336        C  0.88514306  0.26763931  0.89486165     0.26700
C337        C  0.84624741  0.28717070  0.88897347    -0.11000
C338        C  0.82884998  0.29461568  0.82841679    -0.25000
C339        C  0.85164672  0.28357198  0.77355612     0.37500
C340        C  0.93953481  0.22396930  0.84408392     0.07100
F341        F  0.90171859  0.26160380  0.95411164    -0.18800
H342        H  0.82892418  0.29568749  0.93167951     0.16900
F343        F  0.83511698  0.29028424  0.71456602    -0.22500
H344        H  0.90477052  0.25237403  0.73619700     0.18700
C345        C  0.91854149  0.17321196  0.87942777     0.26700
C346        C  0.94044395  0.13660069  0.86934651    -0.11000
C347        C  0.98208780  0.14887310  0.82242051    -0.25000
C348        C  0.00819603  0.20300780  0.79332164     0.37600
C349        C  0.98693512  0.24016766  0.80410825    -0.26700
F350        F  0.87190886  0.15496330  0.91730304    -0.18800
H351        H  0.91935152  0.09517372  0.89230149     0.16900
F352        F  0.04967189  0.21699812  0.74899412    -0.22500
H353        H  0.00445734  0.27950959  0.77724021     0.18700
C354        C  0.60699900  0.38794664  0.72670716    -0.26500
C355        C  0.57440145  0.39249428  0.77646687     0.07100
C356        C  0.57973871  0.37547837  0.83822325     0.26700
C357        C  0.62002573  0.35858814  0.85053780    -0.11000
C358        C  0.65450120  0.35725043  0.80142029    -0.25000
C359        C  0.64640014  0.37011820  0.73894360     0.37500
C360        C  0.54159862  0.42219938  0.76433549     0.07100
F361        F  0.54653541  0.37587929  0.88660895    -0.18800
H362        H  0.62504573  0.34711212  0.89837983     0.16900
F363        F  0.67759576  0.36661455  0.69008267    -0.22500
H364        H  0.60389426  0.40070949  0.67869911     0.18700
C365        C  0.55174298  0.46999467  0.80263271     0.26700
C366        C  0.53664043  0.50914604  0.78028926    -0.11000
C367        C  0.51321398  0.50253754  0.71864297    -0.25000
C368        C  0.49475285  0.45035595  0.68495822     0.37600
C369        C  0.50926227  0.41063175  0.70755443    -0.26700
F370        F  0.58369549  0.48379798  0.85712189    -0.18800
H371        H  0.55108785  0.54876518  0.80748249     0.16900
F372        F  0.46947176  0.44147441  0.62649971    -0.22500
H373        H  0.49980902  0.37347642  0.67787748     0.18700
C374        C  0.72770805  0.73325759  0.78885224    -0.26500
C375        C  0.73396687  0.78810768  0.78686660     0.07100
C376        C  0.68767395  0.79375906  0.76550189     0.26700
C377        C  0.63849057  0.74605128  0.73981237    -0.11000
C378        C  0.63450476  0.69219702  0.73641955    -0.25000
C379        C  0.67802666  0.68541617  0.76445496     0.37500
C380        C  0.79132408  0.83982611  0.79534111     0.07100
F381        F  0.69245367  0.84633485  0.76316020    -0.18800
H382        H  0.60622960  0.75249318  0.71751958     0.16900
F383        F  0.67417295  0.63315454  0.76380251    -0.22500
H384        H  0.76255804  0.72809210  0.80617912     0.18700
C385        C  0.80015864  0.88467672  0.83747443     0.26700
C386        C  0.85056695  0.93817992  0.83408522    -0.11000
C387        C  0.89246297  0.94751746  0.78848932    -0.25000
C388        C  0.88565818  0.90138930  0.74996326     0.37600
C389        C  0.83541639  0.84783126  0.75361190    -0.26700
F390        F  0.75869346  0.87766059  0.87914284    -0.18800
H391        H  0.85509915  0.97346669  0.86401283     0.16900
F392        F  0.92618815  0.90904563  0.70663160    -0.22500
H393        H  0.82918975  0.81376482  0.72065080     0.18700
C394        C  0.90546113  0.17027596  0.39328076    -0.26500
C395        C  0.88137062  0.11986567  0.42904885     0.07100
C396        C  0.83380475  0.10612970  0.46764185     0.26700
C397        C  0.81652271  0.14654996  0.47777796    -0.11000
C398        C  0.84777194  0.20161950  0.45116442    -0.25000
C399        C  0.88898798  0.21120011  0.40421403     0.37500
C400        C  0.91553755  0.09179622  0.43915419     0.07100
F401        F  0.80865458  0.05670293  0.50126878    -0.18800
H402        H  0.78406668  0.13783260  0.51330372     0.16900
F403        F  0.92013212  0.26334127  0.37674084    -0.22500
H404        H  0.94204838  0.18130021  0.36303691     0.18700
C405        C  0.92612216  0.06321235  0.38918660     0.26700
C406        C  0.96651469  0.04577242  0.39747466    -0.11000
C407        C  0.99755472  0.05784096  0.45521128    -0.25000
C408        C  0.98555848  0.08474207  0.50581368     0.37600
C409        C  0.94464223  0.10129392  0.49782981    -0.26700
F410        F  0.89840321  0.05351260  0.33225182    -0.18800
H411        H  0.97506517  0.02457202  0.35821317     0.16900
F412        F  0.01445540  0.09624047  0.56227071    -0.22500
H413        H  0.93751728  0.12403757  0.53658429     0.18700
C414        C  0.26795719  0.88755717  0.55605985    -0.26500
C415        C  0.28979462  0.93467529  0.51485589     0.07100
C416        C  0.33952368  0.94836695  0.47991501     0.26700
C417        C  0.36001426  0.90986229  0.47746027    -0.11000
C418        C  0.33142461  0.85730149  0.50995753    -0.25000
C419        C  0.28921183  0.84974010  0.55463618     0.37500
C420        C  0.25594022  0.96357019  0.50277876     0.07100
F421        F  0.36585010  0.99681407  0.44466467    -0.18800
H422        H  0.39453997  0.91835664  0.44498584     0.16900
F423        F  0.26378740  0.80262278  0.59188190    -0.22500
H424        H  0.23100932  0.87691454  0.58545398     0.18700
C425        C  0.24287633  0.97156885  0.43965105     0.26700
C426        C  0.20401098  0.99047832  0.42828944    -0.11000
C427        C  0.17643908  0.00040062  0.47928844    -0.25000
C428        C  0.19005394  0.99368483  0.54220256     0.37600
C429        C  0.22977866  0.97596354  0.55377602    -0.26700
F430        F  0.26421781  0.95703723  0.38866112    -0.17900
H431        H  0.19350873  0.99501997  0.37954871     0.16900
F432        F  0.16360771  0.00275415  0.59238612    -0.22500
H433        H  0.23875973  0.97015274  0.60268293     0.18700
C434        C  0.03358276  0.47010920  0.43737504    -0.26500
C435        C  0.05875511  0.50630682  0.49101783     0.07100
C436        C  0.02881380  0.49191878  0.54902225     0.26700
C437        C  0.97601067  0.44088707  0.55372034    -0.11000
C438        C  0.95236912  0.40256485  0.50115809    -0.25000
C439        C  0.98121708  0.41861781  0.44220676     0.37500
C440        C  0.11609610  0.55889351  0.48628418     0.07100
F441        F  0.05215407  0.52557153  0.60211487    -0.18800
H442        H  0.95491807  0.42997108  0.59955456     0.16900
F443        F  0.96149599  0.38317904  0.39009120    -0.22500
H444        H  0.05525323  0.48104693  0.39179987     0.18700
C445        C  0.16248321  0.55739844  0.45724302     0.26700
C446        C  0.21574336  0.60805019  0.45165931    -0.11000
C447        C  0.22359637  0.66032622  0.47600193    -0.25000
C448        C  0.17757621  0.66169788  0.50539339     0.37600
C449        C  0.12438898  0.61149943  0.51027053    -0.26700
F450        F  0.15648848  0.50706231  0.43478579    -0.18800
H451        H  0.25072337  0.60660642  0.42811874     0.16900
F452        F  0.18298108  0.71220887  0.52597528    -0.22500
H453        H  0.08909173  0.61406398  0.53129231     0.18700
C454        C  0.93814652  0.70067959  0.40492309    -0.26500
C455        C  0.98345591  0.72685054  0.44959325     0.07100
C456        C  0.99010415  0.69238591  0.49452031     0.26700
C457        C  0.94799857  0.63431227  0.49972646    -0.11000
C458        C  0.89812211  0.61020740  0.46122379    -0.25000
C459        C  0.89569679  0.64276025  0.41046257     0.37500
C460        C  0.01566449  0.79043341  0.45670981     0.07100
F461        F  0.03457500  0.71609909  0.53699127    -0.18800
H462        H  0.95129357  0.60991989  0.53852717     0.16900
F463        F  0.84881184  0.62150981  0.37164522    -0.22500
H464        H  0.93227374  0.72648314  0.36982996     0.18700
C465        C  0.04170744  0.82584775  0.40402340     0.26700
C466        C  0.06218722  0.88497170  0.40898161    -0.11000
C467        C  0.05708293  0.90951303  0.46645783    -0.25000
C468        C  0.03400695  0.87482156  0.52013750     0.37600
C469        C  0.01329451  0.81569571  0.51514390    -0.26700
F470        F  0.04600650  0.80301011  0.34751229    -0.18800
H471        H  0.08028112  0.91142884  0.36732109     0.16900
F472        F  0.02947243  0.89776757  0.57649027    -0.22500
H473        H  0.99270336  0.78912607  0.55613552     0.18700
C474        C  0.13700186  0.23555815  0.40637362    -0.26500
C475        C  0.16797411  0.27042348  0.45929316     0.07100
C476        C  0.17124847  0.24376166  0.51511414     0.26700
C477        C  0.14654697  0.18378117  0.51629993    -0.11000
C478        C  0.11909023  0.14954062  0.46171403    -0.25000
C479        C  0.11342113  0.17575584  0.40708367     0.37500
C480        C  0.20253380  0.33412638  0.45250445     0.07100
F481        F  0.20172462  0.27582065  0.56680564    -0.18800
H482        H  0.15114811  0.16414124  0.55895756     0.16900
F483        F  0.08812447  0.14385166  0.35345185    -0.22500
H484        H  0.13355843  0.25548289  0.36353146     0.18700
C485        C  0.23999476  0.35710354  0.40067885     0.26700
C486        C  0.27452004  0.41637412  0.39444122    -0.11000
C487        C  0.27334876  0.45504957  0.43972440    -0.25000
C488        C  0.23603894  0.43239410  0.49186715     0.37600
C489        C  0.20070663  0.37231987  0.49800874    -0.26700
F490        F  0.24580077  0.32215525  0.35770152    -0.18800
H491        H  0.30442712  0.43194599  0.35516945     0.16900
F492        F  0.23413062  0.46811327  0.53694235    -0.22500
H493        H  0.17227433  0.35559671  0.53848637     0.18700
C494        C  0.48817011  0.47730459  0.45412963    -0.26500
C495        C  0.54507941  0.51929658  0.44063169     0.07100
C496        C  0.55716474  0.57519691  0.42486796     0.26700
C497        C  0.51300606  0.58796268  0.42148820    -0.11000
C498        C  0.45654421  0.54603869  0.43587610    -0.25000
C499        C  0.44448703  0.49062837  0.45271528     0.37500
C500        C  0.59200000  0.50568033  0.44544854     0.07100
F501        F  0.61184405  0.61803482  0.41436815    -0.18800
H502        H  0.52293034  0.63075288  0.40826588     0.16900
F503        F  0.39000380  0.44858259  0.46556981    -0.22500
H504        H  0.47723282  0.43379472  0.46516506     0.18700
C505        C  0.59640328  0.47624030  0.49831009     0.26700
C506        C  0.64668883  0.47474773  0.50908751    -0.11000
C507        C  0.69315864  0.50180548  0.46717331    -0.25000
C508        C  0.68572910  0.52433414  0.41003520     0.37600
C509        C  0.63563073  0.52629328  0.39956704    -0.26700
F510        F  0.55435550  0.45286625  0.54247561    -0.18800
H511        H  0.65077243  0.45578928  0.55263115     0.16900
F512        F  0.72876205  0.54967731  0.36717217    -0.22500
H513        H  0.63237007  0.54688888  0.35704662     0.18700
C514        C  0.41187870  0.20551814  0.38954140    -0.26500
C515        C  0.38486304  0.23257209  0.41879566     0.07100
C516        C  0.41858862  0.28585366  0.45037007     0.26700
C517        C  0.47745401  0.30777741  0.45931830    -0.11000
C518        C  0.50278683  0.27560349  0.43930776    -0.25000
C519        C  0.47050696  0.22682704  0.39931169     0.37500
C520        C  0.32219327  0.19864416  0.42874010     0.07100
F521        F  0.39358234  0.31334345  0.47843796    -0.18800
H522        H  0.50149435  0.34590384  0.48925430     0.16900
F523        F  0.49285321  0.19462984  0.37765578    -0.22500
H524        H  0.38639725  0.16420223  0.36534218     0.18700
C525        C  0.28338368  0.17539820  0.37700943     0.26700
C526        C  0.22546562  0.13540636  0.38780925    -0.11000
C527        C  0.20598841  0.11769672  0.45012427    -0.25000
C528        C  0.24433004  0.14197945  0.50177968     0.37600
C529        C  0.30193042  0.18239927  0.49119320    -0.26700
F530        F  0.30173733  0.19064306  0.31630072    -0.18800
H531        H  0.19600169  0.11711988  0.34755364     0.16900
F532        F  0.22609176  0.12534260  0.56215073    -0.22500
H533        H  0.33139930  0.19903370  0.53159260     0.18700
C534        C  0.75085737  0.83654831  0.46895889    -0.26500
C535        C  0.78743330  0.82653944  0.50755613     0.07100
C536        C  0.76567843  0.79590226  0.56424523     0.26700
C537        C  0.71288865  0.78557565  0.58748165    -0.11000
C538        C  0.68181929  0.80662026  0.55519924    -0.25000
C539        C  0.69775795  0.82592966  0.49230549     0.37500
C540        C  0.85046292  0.86076125  0.49776372     0.07100
F541        F  0.79883763  0.78303880  0.60124201    -0.18800
H542        H  0.70138085  0.76979261  0.63533421     0.16900
F543        F  0.66781188  0.84491254  0.45856657    -0.22500
H544        H  0.76633239  0.85939380  0.42457776     0.18700
C545        C  0.87562646  0.86142932  0.43871752     0.26700
C546        C  0.93415872  0.90080868  0.42878189    -0.11000
C547        C  0.96787010  0.94008602  0.47742177    -0.25000
C548        C  0.94311139  0.93802233  0.53693078     0.37600
C549        C  0.88509185  0.89888795  0.54687206    -0.26700
F550        F  0.84340463  0.82452333  0.39083553    -0.18800
H551        H  0.95306316  0.90177736  0.38293192     0.16900
F552        F  0.97505446  0.97481902  0.58508184    -0.22500
H553        H  0.86654755  0.89998768  0.59239007     0.18700
C554        C  0.56610806  0.99107101  0.59277196    -0.26500
C555        C  0.59065403  0.02070539  0.53608035     0.07100
C556        C  0.61458283  0.99834217  0.49281895     0.26700
C557        C  0.61813949  0.95004451  0.50888741    -0.11000
C558        C  0.59829057  0.92390114  0.56814515    -0.25000
C559        C  0.57000395  0.94300489  0.60869559     0.37500
C560        C  0.59643585  0.07773652  0.52636008     0.07100
F561        F  0.63981282  0.02645245  0.43834849    -0.18800
H562        H  0.64152182  0.93661223  0.47794246     0.16900
F563        F  0.55065635  0.91799595  0.66599881    -0.22500
H564        H  0.54683338  0.00717527  0.62638528     0.18700
C565        C  0.57794501  0.09078305  0.46957707     0.26700
C566        C  0.57995716  0.14347109  0.46416829    -0.11000
C567        C  0.60037196  0.18383568  0.51518228    -0.25000
C568        C  0.62275139  0.17235553  0.56996732     0.37600
C569        C  0.62031811  0.11964369  0.57550216    -0.26700
F570        F  0.55476057  0.05140915  0.42099161    -0.18800
H571        H  0.56232617  0.15114812  0.42146172     0.16900
F572        F  0.64606226  0.21157661  0.61863531    -0.22500
H573        H  0.63644205  0.11115959  0.61876995     0.18700
C574        C  0.75595451  0.92580201  0.17198658    -0.26500
C575        C  0.72096321  0.87893545  0.13103014     0.07100
C576        C  0.74732313  0.85691200  0.09066974     0.26700
C577        C  0.80561083  0.87544559  0.09837601    -0.11000
C578        C  0.83834807  0.91552714  0.14687010    -0.25000
C579        C  0.81436477  0.94429844  0.17960637     0.37500
C580        C  0.65734691  0.84676701  0.13812342     0.07100
F581        F  0.71558914  0.81230591  0.04951792    -0.18800
H582        H  0.82291446  0.85299934  0.07172057     0.16900
F583        F  0.84578315  0.98580086  0.22406208    -0.22500
H584        H  0.73712954  0.94502295  0.20181015     0.18700
C585        C  0.63277277  0.82834641  0.19897640     0.26700
C586        C  0.57404662  0.78865294  0.20474689    -0.11000
C587        C  0.53890211  0.76681696  0.15024704    -0.25000
C588        C  0.56241603  0.78744978  0.08987967     0.37600
C589        C  0.62109867  0.82723350  0.08395586    -0.26700
F590        F  0.66608972  0.84541297  0.25260551    -0.18800
H591        H  0.55633812  0.77321563  0.25155765     0.16900
F592        F  0.52895570  0.76718110  0.03645956    -0.22500
H593        H  0.63865812  0.84114550  0.03675546     0.18700
C594        C  0.09118304  0.49334545  0.21090957    -0.26500
C595        C  0.11873428  0.47068070  0.17375069     0.07100
C596        C  0.08467909  0.42174902  0.13482580     0.26700
C597        C  0.02600728  0.40178149  0.12628601    -0.11000
C598        C  0.00063666  0.43077295  0.15561170    -0.25000
C599        C  0.03261265  0.47326262  0.20267226     0.37500
C600        C  0.18257894  0.50409241  0.16829332     0.07100
F601        F  0.10891512  0.39620310  0.10107416    -0.18800
H602        H  0.00204724  0.36803313  0.09094042     0.16900
F603        F  0.00991968  0.50140184  0.23420562    -0.22500
H604        H  0.11591858  0.53071277  0.24170898     0.18700
C605        C  0.21792654  0.53014887  0.22251630     0.26700
C606        C  0.27619664  0.57070916  0.21546144    -0.11000
C607        C  0.30072576  0.58488133  0.15465352    -0.25000
C608        C  0.26669233  0.55689664  0.10062166     0.37600
C609        C  0.20800215  0.51714530  0.10734718    -0.26700
F610        F  0.19590162  0.51740566  0.28226620    -0.18800
H611        H  0.30225771  0.59213207  0.25747797     0.16900
F612        F  0.28981213  0.57014073  0.04145919    -0.22500
H613        H  0.18191205  0.49885443  0.06459798     0.18700
C614        C  0.90162688  0.72175205  0.10595083    -0.26500
C615        C  0.92702397  0.70271963  0.15029417     0.07100
C616        C  0.95638464  0.73777953  0.20365418     0.26700
C617        C  0.95831796  0.79018748  0.21357964    -0.11000
C618        C  0.93150719  0.80866570  0.17014701    -0.25000
C619        C  0.90390437  0.77429925  0.11548179     0.37500
C620        C  0.92330681  0.64656608  0.14013170     0.07100
F621        F  0.98096658  0.72006570  0.24748309    -0.18800
H622        H  0.97929144  0.81560189  0.25623634     0.16900
F623        F  0.87582223  0.78938997  0.07331067    -0.22500
H624        H  0.87932970  0.69542358  0.06423087     0.18700
C625        C  0.86978295  0.59539084  0.13345269     0.26700
C626        C  0.86716061  0.54283672  0.12131499    -0.11000
C627        C  0.91791791  0.54095723  0.11676172    -0.25000
C628        C  0.97127976  0.59193302  0.12437202     0.37600
C629        C  0.97386342  0.64428401  0.13588321    -0.26700
F630        F  0.82030109  0.59626014  0.14002425    -0.18800
H631        H  0.82578887  0.50378087  0.11564823     0.16900
F632        F  0.02097150  0.59102299  0.11979290    -0.22500
H633        H  0.01541018  0.68328685  0.14058708     0.18700
C634        C  0.49387111  0.00572914  0.17271909    -0.26500
C635        C  0.51360436  0.97398972  0.20592190     0.07100
C636        C  0.56755679  0.00406071  0.23695482     0.26700
C637        C  0.60449826  0.06257623  0.22522916    -0.11000
C638        C  0.58858291  0.09129764  0.18152119    -0.25000
C639        C  0.53122063  0.06391847  0.16008834     0.37500
C640        C  0.48460247  0.91039973  0.19609175     0.07100
F641        F  0.58797918  0.97561924  0.27102640    -0.18800
H642        H  0.64827281  0.08277687  0.24304677     0.16900
F643        F  0.51396268  0.09090283  0.11923645    -0.22500
H644        H  0.45163395  0.98402155  0.15050523     0.18700
C645        C  0.47043629  0.88663616  0.13351005     0.26700
C646        C  0.45266779  0.82871786  0.12208183    -0.11000
C647        C  0.44855681  0.79347268  0.17240236    -0.25000
C648        C  0.46007779  0.81596363  0.23518522     0.37600
C649        C  0.47784600  0.87399442  0.24692743    -0.26700
F650        F  0.47734202  0.92024122  0.08276208    -0.18800
H651        H  0.44388081  0.81147866  0.07375502     0.16900
F652        F  0.45547299  0.78202545  0.28478846    -0.22500
H653        H  0.48784474  0.89087043  0.29548762     0.18700
C654        C  0.37365693  0.47704887  0.06472552    -0.26500
C655        C  0.34921886  0.43827222  0.11495029     0.07100
C656        C  0.34644993  0.45933865  0.17607423     0.26700
C657        C  0.36710576  0.51792625  0.18629377    -0.11000
C658        C  0.39048552  0.55650517  0.13602374    -0.25000
C659        C  0.39391367  0.53580955  0.07502761     0.37500
C660        C  0.31946711  0.37530559  0.10304157     0.07100
F661        F  0.32006285  0.42269518  0.22485863    -0.18800
H662        H  0.36222983  0.53288514  0.23268848     0.16900
F663        F  0.41399039  0.57191775  0.02484913    -0.22500
H664        H  0.37528531  0.46144158  0.01722120     0.18700
C665        C  0.27033120  0.34872131  0.06340586     0.26700
C666        C  0.22933591  0.29062505  0.07147123    -0.11000
C667        C  0.23671223  0.25923582  0.11983102    -0.25000
C668        C  0.29071766  0.28285850  0.15017127     0.37600
C669        C  0.33165253  0.34094455  0.14229329    -0.26700
F670        F  0.25765979  0.38062318  0.02431400    -0.18800
H671        H  0.18828235  0.27328016  0.04710864     0.16900
F672        F  0.29991072  0.25270735  0.19538426    -0.22500
H673        H  0.36994607  0.36052842  0.17216735     0.18700
C674        C  0.88036454  0.21660509  0.11141319    -0.26500
C675        C  0.87687005  0.16574557  0.13340714     0.07100
C676        C  0.82352762  0.12031855  0.15327161     0.26700
C677        C  0.77498201  0.12582336  0.15142184    -0.11000
C678        C  0.77833428  0.17606963  0.12856689    -0.25000
C679        C  0.83119552  0.22150815  0.10823278     0.37500
C680        C  0.92911661  0.16110795  0.13853301     0.07100
F681        F  0.81786875  0.06975128  0.17221306    -0.18800
H682        H  0.73395310  0.08971642  0.16526435     0.16900
F683        F  0.83498969  0.26998944  0.08470427    -0.22500
H684        H  0.92115770  0.25251923  0.09680744     0.18700
C685        C  0.96851916  0.17724167  0.08812468     0.26700
C686        C  0.02041461  0.17825071  0.09678234    -0.11000
C687        C  0.03370699  0.16328334  0.15572136    -0.25000
C688        C  0.99241013  0.14306819  0.20426689     0.37600
C689        C  0.94093896  0.14249392  0.19584200    -0.26700
F690        F  0.95761661  0.19355387  0.03125438    -0.18800
H691        H  0.05169880  0.19435226  0.05884090     0.16900
F692        F  0.00308475  0.12666497  0.26116904    -0.22500
H693        H  0.91141545  0.12998427  0.23542072     0.18700
C694        C  0.57068796  0.62230266  0.21715470    -0.26500
C695        C  0.59203103  0.61065778  0.16098498     0.07100
C696        C  0.57356490  0.62011214  0.10144804     0.26700
C697        C  0.53389582  0.63889454  0.09856868    -0.11000
C698        C  0.51044752  0.64716639  0.15446537    -0.25000
C699        C  0.52994285  0.63989355  0.21395652     0.37500
C700        C  0.62856699  0.58344210  0.16351115     0.07100
F701        F  0.59102314  0.60793648  0.04559504    -0.18800
H702        H  0.52006686  0.64530450  0.05240588     0.16900
F703        F  0.50880082  0.64892247  0.26890832    -0.22500
H704        H  0.58470547  0.61679511  0.26365164     0.18700
C705        C  0.61406182  0.53618065  0.20320287     0.26700
C706        C  0.63691893  0.50041702  0.19164252    -0.11000
C707        C  0.67271190  0.50961863  0.13896350    -0.25000
C708        C  0.69448381  0.56199572  0.10643395     0.37600
C709        C  0.67297516  0.59871308  0.11922447    -0.26700
F710        F  0.57263189  0.52005098  0.24797848    -0.18800
H711        H  0.62064479  0.46158280  0.21910267     0.16900
F712        F  0.73164986  0.57459769  0.05738632    -0.22500
H713        H  0.68761590  0.63666731  0.09048879     0.18700
C714        C  0.27144957  0.74067270  0.18918434    -0.26500
C715        C  0.25428569  0.74646630  0.12739735     0.07100
C716        C  0.27388673  0.72857785  0.07441073     0.26700
C717        C  0.31160838  0.70780674  0.08324581    -0.11000
C718        C  0.33034834  0.70445349  0.14483125    -0.25000
C719        C  0.30894331  0.71970556  0.19785507     0.37500
C720        C  0.22231364  0.77776780  0.11925846     0.07100
F721        F  0.25749721  0.73224005  0.01413042    -0.18800
H722        H  0.32774603  0.69602124  0.04184496     0.16900
F723        F  0.32611715  0.71633837  0.25778057    -0.22500
H724        H  0.25805272  0.75505069  0.23083913     0.18700
C725        C  0.17649369  0.76732495  0.15965950     0.26700
C726        C  0.15851055  0.80766532  0.16517331    -0.11000
C727        C  0.18654808  0.85952359  0.13145312    -0.25000
C728        C  0.22581936  0.86534908  0.08372010     0.37600
C729        C  0.24374110  0.82493479  0.07813089    -0.26700
F730        F  0.15246298  0.72065809  0.19778990    -0.18800
H731        H  0.12733392  0.80155428  0.20136881     0.16900
F732        F  0.25295944  0.91377771  0.04860350    -0.22500
H733        H  0.27866262  0.83389757  0.04608622     0.18700
C734        C  0.36332340  0.12828784  0.08272015    -0.26500
C735        C  0.39276168  0.16751855  0.13310699     0.07100
C736        C  0.36693048  0.15683181  0.19354904     0.26700
C737        C  0.31486798  0.10635444  0.20404579    -0.11000
C738        C  0.28819921  0.06420766  0.15537763    -0.25000
C739        C  0.31211880  0.07677228  0.09366135     0.37500
C740        C  0.45125170  0.21786840  0.12347859     0.07100
F741        F  0.39395936  0.19303379  0.24389167    -0.18800
H742        H  0.29729887  0.09883806  0.25171982     0.16900
F743        F  0.28910231  0.03790289  0.04474508    -0.22500
H744        H  0.38117941  0.13636059  0.03512566     0.18700
C745        C  0.49320099  0.21239671  0.08895872     0.26700
C746        C  0.54814984  0.26019014  0.08085471    -0.11000
C747        C  0.56253358  0.31359330  0.10838551    -0.25000
C748        C  0.52120017  0.31894171  0.14365662     0.37600
C749        C  0.46603200  0.27179241  0.15033353    -0.26700
F750        F  0.48133369  0.16089293  0.06342665    -0.18800
H751        H  0.57930792  0.25572702  0.05264598     0.16900
F752        F  0.53309277  0.37069412  0.16851538    -0.22500
H753        H  0.43443872  0.27791447  0.17546626     0.18700
loop_ 
_geom_bond_atom_site_label_1 
_geom_bond_atom_site_label_2 
_geom_bond_distance 
_geom_bond_site_symmetry_2 
_ccdc_geom_bond_type 
N1            C5   1.359   1_565  A
N1            C2   1.361       .  A
N1          C184   1.440       .  S
C2            C3   1.387       .  A
C2          C727   1.489       .  S
C3            C4   1.366       .  A
C3            H6   1.083       .  S
C4            C5   1.382   1_565  A
C4            H7   1.081   1_565  S
C5          C738   1.492       .  S
N8           C12   1.354       .  A
N8            C9   1.361       .  A
N8           C70   1.445       .  S
C9           C10   1.392       .  A
C9          C707   1.495       .  S
C10          C11   1.372       .  A
C10          H13   1.082       .  S
C11          C12   1.374       .  A
C11          H14   1.079   1_554  S
C12         C747   1.473       .  S
N15          C19   1.355       .  A
N15          C16   1.357       .  A
N15         C169   1.433       .  S
C16          C17   1.387       .  A
C16         C667   1.479       .  S
C17          C18   1.366       .  A
C17          H20   1.082       .  S
C18          C19   1.375       .  A
C18          H21   1.078       .  S
C19         C687   1.479       .  S
N22          C26   1.355       .  A
N22          C23   1.357       .  A
N22          C69   1.442       .  S
C23          C24   1.388       .  A
C23         C638   1.484       .  S
C24          C25   1.371       .  A
C24          H27   1.083       .  S
C25          C26   1.374       .  A
C25          H28   1.080       .  S
C26         C678   1.469       .  S
N29          C33   1.354       .  A
N29          C30   1.360       .  A
N29          C67   1.444       .  S
C30          C31   1.390       .  A
C30         C598   1.490   1_655  S
C31          C32   1.371       .  A
C31          H34   1.083       .  S
C32          C33   1.375       .  A
C32          H35   1.082       .  S
C33         C627   1.471       .  S
N36          C40   1.354       .  A
N36          C37   1.358       .  A
N36         C183   1.437       .  S
C37          C38   1.390       .  A
C37         C578   1.487       .  S
C38          C39   1.370       .  A
C38          H41   1.082       .  S
C39          C40   1.377       .  A
C39          H42   1.081       .  S
C40         C618   1.482       .  S
C43          C44   1.411       .  A
C43          C48   1.413       .  A
C43         C718   1.489       .  S
C44          C45   1.416       .  A
C44         C607   1.485       .  S
C45          C46   1.417       .  A
C45         C658   1.485       .  S
C46          C47   1.414       .  A
C46         C698   1.490       .  S
C47          C48   1.413       .  A
C47         C587   1.486       .  S
C48         C647   1.482       .  S
O49          C65   1.274       .  A
O49         Zn55   2.013       .  S
C50          N93   1.435       .  S
C50          O66   1.272       .  A
C50          O63   1.276       .  A
O51          C64   1.276       .  A
O51         Cd58   2.104       .  S
O52          C70   1.277       .  A
O52         Cd61   2.090       .  S
O53          C67   1.278       .  A
O53         Cd57   2.089       .  S
O54          C65   1.275       .  A
O54         Cd57   2.094       .  S
Zn55         O66   1.991       .  S
Zn55         O68   1.996       .  S
Zn55         O60   1.916       .  S
O56          C67   1.279       .  A
O56         Cd61   2.084       .  S
Cd57         O59   2.076       .  S
Cd57         O60   2.017       .  S
Cd58         O62   2.095       .  S
Cd58         O71   2.089       .  S
Cd58         O60   2.018       .  S
O59          C69   1.277       .  A
O60         Cd61   2.020       .  S
Cd61         O63   2.100       .  S
O62          C69   1.280       .  A
C64          N79   1.438       .  S
C64          O68   1.273       .  A
C65         N107   1.438       .  S
C70          O71   1.279       .  A
N72          C76   1.357       .  A
N72          C73   1.365       .  A
N72         C206   1.440       .  S
C73          C74   1.386       .  A
C73         C538   1.481       .  S
C74          C75   1.359       .  A
C74          H77   1.083       .  S
C75          C76   1.375       .  A
C75          H78   1.083       .  S
C76         C558   1.466       .  S
N79          C83   1.355       .  A
N79          C80   1.359       .  A
C80          C81   1.390       .  A
C80         C518   1.488       .  S
C81          C82   1.368       .  A
C81          H84   1.083       .  S
C82          C83   1.379       .  A
C82          H85   1.082       .  S
C83         C567   1.482       .  S
N86          C90   1.352       .  A
N86          C87   1.357       .  A
N86         C207   1.442       .  S
C87          C88   1.392       .  A
C87         C487   1.493       .  S
C88          C89   1.375       .  A
C88          H91   1.082       .  S
C89          C90   1.374       .  A
C89          H92   1.080       .  S
C90         C498   1.477       .  S
N93          C97   1.357       .  A
N93          C94   1.358       .  A
C94          C95   1.387       .  A
C94         C458   1.485       .  S
C95          C96   1.368       .  A
C95          H98   1.082       .  S
C96          C97   1.380       .  A
C96          H99   1.082       .  S
C97         C507   1.485       .  S
N100        C104   1.354       .  A
N100        C101   1.362       .  A
N100        C192   1.439       .  S
C101        C102   1.393       .  A
C101        C418   1.495       .  S
C102        C103   1.369       .  A
C102        H105   1.083       .  S
C103        C104   1.374       .  A
C103        H106   1.082       .  S
C104        C447   1.471       .  S
N107        C111   1.357       .  A
N107        C108   1.357       .  A
C108        C109   1.387       .  A
C108        C398   1.484       .  S
C109        C110   1.368       .  A
C109        H112   1.083       .  S
C110        C111   1.383       .  A
C110        H113   1.082       .  S
C111        C438   1.489       .  S
C114        C115   1.412   1_545  A
C114        C119   1.412       .  A
C114        C427   1.488       .  S
C115        C116   1.415       .  A
C115        C467   1.483       .  S
C116        C117   1.416   1_565  A
C116        C547   1.489   1_455  S
C117        C118   1.416       .  A
C117        C407   1.485   1_455  S
C118        C119   1.414       .  A
C118        C478   1.492       .  S
C119        C527   1.482       .  S
N120        C124   1.356       .  A
N120        C121   1.362       .  A
N120        C211   1.443       .  S
C121        C122   1.389       .  A
C121        C367   1.483       .  S
C122        C123   1.365       .  A
C122        H125   1.079       .  S
C123        C124   1.377       .  A
C123        H126   1.083       .  S
C124        C378   1.475       .  S
N127        C131   1.353       .  A
N127        C128   1.357       .  A
N127        C189   1.441       .  S
C128        C129   1.389       .  A
C128        C347   1.483       .  S
C129        C130   1.373       .  A
C129        H132   1.082       .  S
C130        C131   1.378       .  A
C130        H133   1.083       .  S
C131        C387   1.474   1_545  S
N134        C138   1.350       .  A
N134        C135   1.357       .  A
N134        C212   1.441       .  S
C135        C136   1.386       .  A
C135        C307   1.490       .  S
C136        C137   1.375       .  A
C136        H139   1.082       .  S
C137        C138   1.379       .  A
C137        H140   1.083       .  S
C138        C318   1.468       .  S
N141        C145   1.355       .  A
N141        C142   1.361   1_455  A
N141        C188   1.449       .  S
C142        C143   1.394       .  A
C142        C278   1.500       .  S
C143        C144   1.372   1_655  A
C143        H146   1.082       .  S
C144        C145   1.377       .  A
C144        H147   1.082       .  S
C145        C327   1.479       .  S
N148        C152   1.354       .  A
N148        C149   1.357       .  A
N148        C186   1.442       .  S
C149        C150   1.388       .  A
C149        C238   1.485       .  S
C150        C151   1.373       .  A
C150        H153   1.083       .  S
C151        C152   1.377       .  A
C151        H154   1.080       .  S
C152        C267   1.472       .  S
N155        C159   1.360       .  A
N155        C156   1.361       .  A
N155        C209   1.448       .  S
C156        C157   1.388       .  A
C156        C227   1.489       .  S
C157        C158   1.367       .  A
C157        H160   1.083       .  S
C158        C159   1.380       .  A
C158        H161   1.082       .  S
C159        C258   1.483       .  S
C162        C163   1.413       .  A
C162        C167   1.413       .  A
C162        C358   1.483       .  S
C163        C164   1.415       .  A
C163        C287   1.490       .  S
C164        C165   1.418       .  A
C164        C218   1.487       .  S
C165        C166   1.414       .  A
C165        C338   1.482       .  S
C166        C167   1.412       .  A
C166        C298   1.489       .  S
C167        C247   1.484       .  S
O168        C184   1.275       .  A
O168       Zn174   2.014   1_565  S
C169        O185   1.274       .  A
C169        O182   1.274       .  A
O170        C183   1.276       .  A
O170       Cd177   2.100   1_554  S
O171        C189   1.276   1_455  A
O171       Cd180   2.078       .  S
O172        C186   1.278       .  A
O172       Cd176   2.089   1_545  S
O173        C184   1.277       .  A
O173       Cd176   2.102   1_554  S
Zn174       O185   2.010       .  S
Zn174       O187   2.008   1_545  S
Zn174       O179   1.919   1_554  S
O175        C186   1.277       .  A
O175       Cd180   2.076       .  S
Cd176       O178   2.083       .  S
Cd176       O179   2.011   1_565  S
Cd177       O181   2.095       .  S
Cd177       O190   2.071       .  S
Cd177       O179   2.021   1_665  S
O178        C188   1.279       .  A
O179       Cd180   2.021       .  S
Cd180       O182   2.092   1_556  S
O181        C188   1.277   1_655  A
C183        O187   1.274   1_655  A
C189        O190   1.277   1_545  A
O191        C207   1.282       .  A
O191       Zn197   2.037       .  S
C192        O208   1.279       .  A
C192        O205   1.281       .  A
O193        C206   1.272       .  A
O193       Cd200   2.049       .  S
O194        C212   1.280       .  A
O194       Cd203   2.099       .  S
O195        C209   1.279       .  A
O195       Cd199   2.077       .  S
O196        C207   1.275       .  A
O196       Cd199   2.084       .  S
Zn197       O208   2.024       .  S
Zn197       O210   2.076       .  S
Zn197       O202   1.937       .  S
O198        C209   1.282       .  A
O198       Cd203   2.110       .  S
Cd199       O201   2.074       .  S
Cd199       O202   2.000       .  S
Cd200       O204   2.073       .  S
Cd200       O213   2.067       .  S
Cd200       O202   1.986       .  S
O201        C211   1.277       .  A
O202       Cd203   2.007       .  S
Cd203       O205   2.112       .  S
O204        C211   1.275       .  A
C206        O210   1.277       .  A
C212        O213   1.276       .  A
C214        C215   1.408       .  A
C214        C219   1.398       .  A
C214        H224   1.083       .  S
C215        C216   1.407       .  A
C215        C220   1.488   1_655  S
C216        C217   1.401       .  A
C216        F221   1.356       .  S
C217        C218   1.404       .  A
C217        H222   1.083       .  S
C218        C219   1.401       .  A
C219        F223   1.356       .  S
C220        C225   1.406       .  A
C220        C229   1.405       .  A
C225        C226   1.398       .  A
C225        F230   1.358       .  S
C226        C227   1.407       .  A
C226        H231   1.084       .  S
C227        C228   1.410       .  A
C228        C229   1.401       .  A
C228        F232   1.357       .  S
C229        H233   1.083       .  S
C234        C235   1.406       .  A
C234        C239   1.400       .  A
C234        H244   1.083       .  S
C235        C236   1.408       .  A
C235        C240   1.486       .  S
C236        C237   1.396       .  A
C236        F241   1.358       .  S
C237        C238   1.406       .  A
C237        H242   1.083       .  S
C238        C239   1.407       .  A
C239        F243   1.358       .  S
C240        C245   1.412       .  A
C240        C249   1.405       .  A
C245        C246   1.398       .  A
C245        F250   1.358       .  S
C246        C247   1.399       .  A
C246        H251   1.082       .  S
C247        C248   1.404       .  A
C248        C249   1.398       .  A
C248        F252   1.357       .  S
C249        H253   1.082       .  S
C254        C255   1.406       .  A
C254        C259   1.397       .  A
C254        H264   1.083       .  S
C255        C256   1.408       .  A
C255        C260   1.486       .  S
C256        C257   1.399       .  A
C256        F261   1.358       .  S
C257        C258   1.405       .  A
C257        H262   1.083       .  S
C258        C259   1.406       .  A
C259        F263   1.357       .  S
C260        C265   1.407       .  A
C260        C269   1.410       .  A
C265        C266   1.395       .  A
C265        F270   1.358       .  S
C266        C267   1.403       .  A
C266        H271   1.084       .  S
C267        C268   1.400       .  A
C268        C269   1.401       .  A
C268        F272   1.357       .  S
C269        H273   1.082       .  S
C274        C275   1.405       .  A
C274        C279   1.402       .  A
C274        H284   1.083       .  S
C275        C276   1.406       .  A
C275        C280   1.493       .  S
C276        C277   1.400       .  A
C276        F281   1.357       .  S
C277        C278   1.409       .  A
C277        H282   1.081       .  S
C278        C279   1.413       .  A
C279        F283   1.355       .  S
C280        C285   1.412       .  A
C280        C289   1.407       .  A
C285        C286   1.399       .  A
C285        F290   1.357       .  S
C286        C287   1.400       .  A
C286        H291   1.083       .  S
C287        C288   1.406       .  A
C288        C289   1.403       .  A
C288        F292   1.358       .  S
C289        H293   1.083       .  S
C294        C295   1.405       .  A
C294        C299   1.399       .  A
C294        H304   1.081       .  S
C295        C296   1.407       .  A
C295        C300   1.488       .  S
C296        C297   1.403       .  A
C296        F301   1.356       .  S
C297        C298   1.404       .  A
C297        H302   1.083       .  S
C298        C299   1.401       .  A
C299        F303   1.356       .  S
C300        C305   1.408   1_545  A
C300        C309   1.403   1_545  A
C305        C306   1.402       .  A
C305        F310   1.357   1_565  S
C306        C307   1.408       .  A
C306        H311   1.083       .  S
C307        C308   1.411       .  A
C308        C309   1.398       .  A
C308        F312   1.357       .  S
C309        H313   1.083   1_565  S
C314        C315   1.399       .  A
C314        C319   1.391       .  A
C314        H324   1.084       .  S
C315        C316   1.409       .  A
C315        C320   1.475       .  S
C316        C317   1.400       .  A
C316        F321   1.356       .  S
C317        C318   1.399       .  A
C317        H322   1.084       .  S
C318        C319   1.406       .  A
C319        F323   1.358       .  S
C320        C325   1.403       .  A
C320        C329   1.406       .  A
C325        C326   1.390       .  A
C325        F330   1.358       .  S
C326        C327   1.405       .  A
C326        H331   1.081       .  S
C327        C328   1.406       .  A
C328        C329   1.400       .  A
C328        F332   1.357       .  S
C329        H333   1.083       .  S
C334        C335   1.409       .  A
C334        C339   1.397       .  A
C334        H344   1.083       .  S
C335        C336   1.408       .  A
C335        C340   1.486       .  S
C336        C337   1.399       .  A
C336        F341   1.357       .  S
C337        C338   1.403       .  A
C337        H342   1.083       .  S
C338        C339   1.401       .  A
C339        F343   1.357       .  S
C340        C345   1.409       .  A
C340        C349   1.406       .  A
C345        C346   1.397       .  A
C345        F350   1.358       .  S
C346        C347   1.405       .  A
C346        H351   1.083       .  S
C347        C348   1.407   1_655  A
C348        C349   1.399   1_455  A
C348        F352   1.357       .  S
C349        H353   1.083   1_655  S
C354        C355   1.408       .  A
C354        C359   1.396       .  A
C354        H364   1.083       .  S
C355        C356   1.409       .  A
C355        C360   1.488       .  S
C356        C357   1.400       .  A
C356        F361   1.357       .  S
C357        C358   1.400       .  A
C357        H362   1.081       .  S
C358        C359   1.402       .  A
C359        F363   1.358       .  S
C360        C365   1.409       .  A
C360        C369   1.408       .  A
C365        C366   1.395       .  A
C365        F370   1.357       .  S
C366        C367   1.404       .  A
C366        H371   1.083       .  S
C367        C368   1.407       .  A
C368        C369   1.401       .  A
C368        F372   1.358       .  S
C369        H373   1.083       .  S
C374        C375   1.401       .  A
C374        C379   1.396       .  A
C374        H384   1.082       .  S
C375        C376   1.407       .  A
C375        C380   1.475       .  S
C376        C377   1.397       .  A
C376        F381   1.357       .  S
C377        C378   1.400       .  A
C377        H382   1.078       .  S
C378        C379   1.406       .  A
C379        F383   1.358       .  S
C380        C385   1.403       .  A
C380        C389   1.405       .  A
C385        C386   1.397       .  A
C385        F390   1.358       .  S
C386        C387   1.405       .  A
C386        H391   1.083       .  S
C387        C388   1.402       .  A
C388        C389   1.396       .  A
C388        F392   1.357       .  S
C389        H393   1.082       .  S
C394        C395   1.401       .  A
C394        C399   1.398       .  A
C394        H404   1.084       .  S
C395        C396   1.403       .  A
C395        C400   1.476       .  S
C396        C397   1.399       .  A
C396        F401   1.357       .  S
C397        C398   1.407       .  A
C397        H402   1.084       .  S
C398        C399   1.411       .  A
C399        F403   1.356       .  S
C400        C405   1.402       .  A
C400        C409   1.405       .  A
C405        C406   1.401       .  A
C405        F410   1.356       .  S
C406        C407   1.406       .  A
C406        H411   1.083       .  S
C407        C408   1.402       .  A
C408        C409   1.396       .  A
C408        F412   1.357   1_655  S
C409        H413   1.084       .  S
C414        C415   1.406       .  A
C414        C419   1.400       .  A
C414        H424   1.083       .  S
C415        C416   1.408       .  A
C415        C420   1.494       .  S
C416        C417   1.401       .  A
C416        F421   1.358       .  S
C417        C418   1.409       .  A
C417        H422   1.083       .  S
C418        C419   1.410       .  A
C419        F423   1.356       .  S
C420        C425   1.414       .  A
C420        C429   1.407       .  A
C425        C426   1.401       .  A
C425        F430   1.357       .  S
C426        C427   1.400   1_565  A
C426        H431   1.083       .  S
C427        C428   1.405   1_545  A
C428        C429   1.400       .  A
C428        F432   1.358   1_565  S
C429        H433   1.083       .  S
C434        C435   1.402       .  A
C434        C439   1.397   1_455  A
C434        H444   1.083       .  S
C435        C436   1.406       .  A
C435        C440   1.482       .  S
C436        C437   1.397   1_455  A
C436        F441   1.357       .  S
C437        C438   1.406       .  A
C437        H442   1.082       .  S
C438        C439   1.412       .  A
C439        F443   1.355       .  S
C440        C445   1.412       .  A
C440        C449   1.402       .  A
C445        C446   1.400       .  A
C445        F450   1.357       .  S
C446        C447   1.401       .  A
C446        H451   1.084       .  S
C447        C448   1.404       .  A
C448        C449   1.392       .  A
C448        F452   1.356       .  S
C449        H453   1.083       .  S
C454        C455   1.404       .  A
C454        C459   1.398       .  A
C454        H464   1.084       .  S
C455        C456   1.405       .  A
C455        C460   1.481   1_655  S
C456        C457   1.398       .  A
C456        F461   1.357   1_655  S
C457        C458   1.407       .  A
C457        H462   1.084       .  S
C458        C459   1.410       .  A
C459        F463   1.356       .  S
C460        C465   1.405       .  A
C460        C469   1.407       .  A
C465        C466   1.398       .  A
C465        F470   1.357       .  S
C466        C467   1.404       .  A
C466        H471   1.083       .  S
C467        C468   1.402       .  A
C468        C469   1.397       .  A
C468        F472   1.357       .  S
C469        H473   1.083   1_455  S
C474        C475   1.406       .  A
C474        C479   1.401       .  A
C474        H484   1.079       .  S
C475        C476   1.406       .  A
C475        C480   1.490       .  S
C476        C477   1.402       .  A
C476        F481   1.357       .  S
C477        C478   1.406       .  A
C477        H482   1.083       .  S
C478        C479   1.401       .  A
C479        F483   1.356       .  S
C480        C485   1.404       .  A
C480        C489   1.410       .  A
C485        C486   1.390       .  A
C485        F490   1.358       .  S
C486        C487   1.410       .  A
C486        H491   1.083       .  S
C487        C488   1.406       .  A
C488        C489   1.410       .  A
C488        F492   1.356       .  S
C489        H493   1.083       .  S
C494        C495   1.404       .  A
C494        C499   1.397       .  A
C494        H504   1.082       .  S
C495        C496   1.414       .  A
C495        C500   1.491       .  S
C496        C497   1.400       .  A
C496        F501   1.357       .  S
C497        C498   1.399       .  A
C497        H502   1.083       .  S
C498        C499   1.408       .  A
C499        F503   1.357       .  S
C500        C505   1.410       .  A
C500        C509   1.405       .  A
C505        C506   1.397       .  A
C505        F510   1.355       .  S
C506        C507   1.404       .  A
C506        H511   1.084       .  S
C507        C508   1.408       .  A
C508        C509   1.398       .  A
C508        F512   1.356       .  S
C509        H513   1.082       .  S
C514        C515   1.401       .  A
C514        C519   1.397       .  A
C514        H524   1.084       .  S
C515        C516   1.404       .  A
C515        C520   1.477       .  S
C516        C517   1.398       .  A
C516        F521   1.358       .  S
C517        C518   1.409       .  A
C517        H522   1.083       .  S
C518        C519   1.411       .  A
C519        F523   1.357       .  S
C520        C525   1.405       .  A
C520        C529   1.405       .  A
C525        C526   1.400       .  A
C525        F530   1.356       .  S
C526        C527   1.404       .  A
C526        H531   1.083       .  S
C527        C528   1.399       .  A
C528        C529   1.395       .  A
C528        F532   1.354       .  S
C529        H533   1.084       .  S
C534        C535   1.405       .  A
C534        C539   1.403       .  A
C534        H544   1.083       .  S
C535        C536   1.405       .  A
C535        C540   1.485       .  S
C536        C537   1.397       .  A
C536        F541   1.357       .  S
C537        C538   1.405       .  A
C537        H542   1.077       .  S
C538        C539   1.408       .  A
C539        F543   1.357       .  S
C540        C545   1.407       .  A
C540        C549   1.406       .  A
C545        C546   1.406       .  A
C545        F550   1.356       .  S
C546        C547   1.404       .  A
C546        H551   1.082       .  S
C547        C548   1.402       .  A
C548        C549   1.394       .  A
C548        F552   1.357       .  S
C549        H553   1.084       .  S
C554        C555   1.407   1_565  A
C554        C559   1.396       .  A
C554        H564   1.083   1_565  S
C555        C556   1.407   1_545  A
C555        C560   1.480       .  S
C556        C557   1.398       .  A
C556        F561   1.357   1_565  S
C557        C558   1.402       .  A
C557        H562   1.084       .  S
C558        C559   1.398       .  A
C559        F563   1.354       .  S
C560        C565   1.405       .  A
C560        C569   1.404       .  A
C565        C566   1.399       .  A
C565        F570   1.357       .  S
C566        C567   1.407       .  A
C566        H571   1.083       .  S
C567        C568   1.405       .  A
C568        C569   1.394       .  A
C568        F572   1.357       .  S
C569        H573   1.081       .  S
C574        C575   1.406       .  A
C574        C579   1.401       .  A
C574        H584   1.083       .  S
C575        C576   1.409       .  A
C575        C580   1.490       .  S
C576        C577   1.398       .  A
C576        F581   1.357       .  S
C577        C578   1.405       .  A
C577        H582   1.082       .  S
C578        C579   1.408       .  A
C579        F583   1.356       .  S
C580        C585   1.413       .  A
C580        C589   1.406       .  A
C585        C586   1.400       .  A
C585        F590   1.357       .  S
C586        C587   1.399       .  A
C586        H591   1.083       .  S
C587        C588   1.405       .  A
C588        C589   1.400       .  A
C588        F592   1.357       .  S
C589        H593   1.083       .  S
C594        C595   1.406       .  A
C594        C599   1.398       .  A
C594        H604   1.083       .  S
C595        C596   1.408       .  A
C595        C600   1.492       .  S
C596        C597   1.402       .  A
C596        F601   1.358       .  S
C597        C598   1.409       .  A
C597        H602   1.084       .  S
C598        C599   1.410       .  A
C599        F603   1.357       .  S
C600        C605   1.409       .  A
C600        C609   1.412       .  A
C605        C606   1.398       .  A
C605        F610   1.357       .  S
C606        C607   1.401       .  A
C606        H611   1.083       .  S
C607        C608   1.400       .  A
C608        C609   1.401       .  A
C608        F612   1.356       .  S
C609        H613   1.083       .  S
C614        C615   1.401       .  A
C614        C619   1.396       .  A
C614        H624   1.084       .  S
C615        C616   1.405       .  A
C615        C620   1.476       .  S
C616        C617   1.398       .  A
C616        F621   1.357       .  S
C617        C618   1.405       .  A
C617        H622   1.083       .  S
C618        C619   1.410       .  A
C619        F623   1.357       .  S
C620        C625   1.408       .  A
C620        C629   1.400       .  A
C625        C626   1.400       .  A
C625        F630   1.355       .  S
C626        C627   1.400       .  A
C626        H631   1.083       .  S
C627        C628   1.405       .  A
C628        C629   1.393       .  A
C628        F632   1.358   1_655  S
C629        H633   1.084   1_655  S
C634        C635   1.406   1_545  A
C634        C639   1.398       .  A
C634        H644   1.083   1_545  S
C635        C636   1.409   1_565  A
C635        C640   1.490       .  S
C636        C637   1.400       .  A
C636        F641   1.358   1_545  S
C637        C638   1.406       .  A
C637        H642   1.083       .  S
C638        C639   1.405       .  A
C639        F643   1.355       .  S
C640        C645   1.413       .  A
C640        C649   1.406       .  A
C645        C646   1.397       .  A
C645        F650   1.357       .  S
C646        C647   1.395       .  A
C646        H651   1.081       .  S
C647        C648   1.405       .  A
C648        C649   1.401       .  A
C648        F652   1.357       .  S
C649        H653   1.083       .  S
C654        C655   1.403       .  A
C654        C659   1.401       .  A
C654        H664   1.083       .  S
C655        C656   1.409       .  A
C655        C660   1.480       .  S
C656        C657   1.394       .  A
C656        F661   1.358       .  S
C657        C658   1.398       .  A
C657        H662   1.079       .  S
C658        C659   1.407       .  A
C659        F663   1.357       .  S
C660        C665   1.406       .  A
C660        C669   1.404       .  A
C665        C666   1.399       .  A
C665        F670   1.358       .  S
C666        C667   1.405       .  A
C666        H671   1.083       .  S
C667        C668   1.407       .  A
C668        C669   1.397       .  A
C668        F672   1.358       .  S
C669        H673   1.083       .  S
C674        C675   1.409       .  A
C674        C679   1.401       .  A
C674        H684   1.083       .  S
C675        C676   1.406       .  A
C675        C680   1.482       .  S
C676        C677   1.393       .  A
C676        F681   1.357       .  S
C677        C678   1.401       .  A
C677        H682   1.084       .  S
C678        C679   1.401       .  A
C679        F683   1.357       .  S
C680        C685   1.408       .  A
C680        C689   1.404       .  A
C685        C686   1.399   1_655  A
C685        F690   1.357       .  S
C686        C687   1.405       .  A
C686        H691   1.083       .  S
C687        C688   1.406   1_455  A
C688        C689   1.393       .  A
C688        F692   1.356   1_655  S
C689        H693   1.083       .  S
C694        C695   1.409       .  A
C694        C699   1.403       .  A
C694        H704   1.083       .  S
C695        C696   1.415       .  A
C695        C700   1.499       .  S
C696        C697   1.399       .  A
C696        F701   1.357       .  S
C697        C698   1.398       .  A
C697        H702   1.082       .  S
C698        C699   1.405       .  A
C699        F703   1.357       .  S
C700        C705   1.411       .  A
C700        C709   1.407       .  A
C705        C706   1.401       .  A
C705        F710   1.357       .  S
C706        C707   1.407       .  A
C706        H711   1.082       .  S
C707        C708   1.410       .  A
C708        C709   1.400       .  A
C708        F712   1.358       .  S
C709        H713   1.083       .  S
C714        C715   1.410       .  A
C714        C719   1.400       .  A
C714        H724   1.083       .  S
C715        C716   1.409       .  A
C715        C720   1.492       .  S
C716        C717   1.402       .  A
C716        F721   1.358       .  S
C717        C718   1.405       .  A
C717        H722   1.083       .  S
C718        C719   1.401       .  A
C719        F723   1.356       .  S
C720        C725   1.408       .  A
C720        C729   1.407       .  A
C725        C726   1.400       .  A
C725        F730   1.358       .  S
C726        C727   1.408       .  A
C726        H731   1.084       .  S
C727        C728   1.409       .  A
C728        C729   1.401       .  A
C728        F732   1.357       .  S
C729        H733   1.083       .  S
C734        C735   1.404       .  A
C734        C739   1.399       .  A
C734        H744   1.083       .  S
C735        C736   1.407       .  A
C735        C740   1.488       .  S
C736        C737   1.395       .  A
C736        F741   1.356       .  S
C737        C738   1.407       .  A
C737        H742   1.082       .  S
C738        C739   1.412       .  A
C739        F743   1.355       .  S
C740        C745   1.412       .  A
C740        C749   1.404       .  A
C745        C746   1.400       .  A
C745        F750   1.356       .  S
C746        C747   1.400       .  A
C746        H751   1.083       .  S
C747        C748   1.405       .  A
C748        C749   1.393       .  A
C748        F752   1.357       .  S
C749        H753   1.083       .  S
