geometry optimzed in LAMMPS
_audit_creation_date              2020-11-30 
_audit_creation_method            'lammps2cif' 
_symmetry_space_group_name_H-M    'P1' 
_symmetry_Int_Tables_number       1 
_symmetry_cell_setting            triclinic 
loop_ 
_symmetry_equiv_pos_as_xyz 
  x,y,z 
_cell_length_a                    50.23852872 
_cell_length_b                    51.13505721620472 
_cell_length_c                    24.10151081211203 
_cell_angle_alpha                 89.90477660402881 
_cell_angle_beta                  89.70820682048837 
_cell_angle_gamma                 90.12227593959317 
loop_ 
_atom_site_label 
_atom_site_type_symbol 
_atom_site_fract_x 
_atom_site_fract_y 
_atom_site_fract_z 
_atom_site_charge 
In1        In  0.47744178  0.85210347  0.82783670     1.36900
C2          C  0.50579397  0.80891716  0.81791664     0.78000
O3          O  0.48375715  0.83989184  0.91517066    -0.60500
O4          O  0.45508493  0.86909700  0.90228187    -0.51400
C5          C  0.50710293  0.89626631  0.81452104     0.70700
O6          O  0.48224849  0.89583467  0.80620634    -0.46200
C7          C  0.43860455  0.83277558  0.76018579     0.75400
O8          O  0.50821712  0.82768808  0.78401109    -0.58100
O9          O  0.43365060  0.84122872  0.80830584    -0.48200
O10         O  0.49016133  0.81354558  0.85774500    -0.54500
C11         C  0.46737939  0.85522676  0.93737388     0.85500
O12         O  0.51629056  0.87413411  0.82625892    -0.56400
O13         O  0.46220926  0.83705752  0.74499755    -0.59700
In14       In  0.47423123  0.59765909  0.81835053     1.36900
C15         C  0.51339472  0.62991174  0.79230064     0.78000
O16         O  0.43800604  0.59586809  0.75872936    -0.60500
O17         O  0.44991124  0.63250947  0.78927385    -0.51400
C18         C  0.49938746  0.55097603  0.80485768     0.70700
O19         O  0.50437511  0.57106677  0.77662794    -0.46200
C20         C  0.46308890  0.59815773  0.92746715     0.75400
O21         O  0.50415065  0.61343575  0.75850550    -0.58100
O22         O  0.44724365  0.58887895  0.89190053    -0.48200
O23         O  0.50360901  0.62869898  0.84071950    -0.54500
C24         C  0.43441385  0.62036824  0.75773011     0.85500
O25         O  0.47927022  0.55376495  0.83579211    -0.56400
O26         O  0.48416975  0.60746394  0.90669628    -0.59700
In27       In  0.44092192  0.88421563  0.46271091     1.36900
C28         C  0.39876433  0.91509766  0.46445673     0.78000
O29         O  0.42692607  0.87982942  0.37528123    -0.60500
O30         O  0.46560728  0.86607221  0.39344064    -0.51400
C31         C  0.48408112  0.91508611  0.47978278     0.70700
O32         O  0.46332142  0.92188327  0.45470779    -0.46200
C33         C  0.42179568  0.84783462  0.53466451     0.75400
O34         O  0.41956109  0.92009598  0.49163048    -0.58100
O35         O  0.43273555  0.84165813  0.48936599    -0.48200
O36         O  0.40022311  0.89466017  0.43536550    -0.54500
C37         C  0.44805035  0.86987074  0.35694642     0.85500
O38         O  0.48282519  0.89185097  0.49814467    -0.56400
O39         O  0.42349996  0.87180186  0.54552569    -0.59700
In40       In  0.18026943  0.88562090  0.47678248     1.36900
C41         C  0.21550124  0.92018124  0.51105180     0.78000
O42         O  0.21594750  0.86019358  0.49857079    -0.60500
O43         O  0.17927352  0.84889332  0.53378336    -0.51400
C44         C  0.13531116  0.91428061  0.49464345     0.70700
O45         O  0.13743214  0.89093526  0.51175857    -0.46200
C46         C  0.17926579  0.87486845  0.36678533     0.75400
O47         O  0.20065573  0.90811626  0.54512064    -0.58100
O48         O  0.16380322  0.86373064  0.40111314    -0.48200
O49         O  0.21072341  0.91575165  0.46068541    -0.54500
C50         C  0.20415980  0.84490443  0.53141533     0.85500
O51         O  0.15560481  0.92227030  0.46918109    -0.56400
O52         O  0.19545930  0.88993528  0.38998786    -0.59700
In53       In  0.44072091  0.57268766  0.45637344     1.36900
C54         C  0.39962633  0.54280199  0.48418269     0.78000
O55         O  0.41124432  0.60518929  0.47665483    -0.60500
O56         O  0.44652806  0.60476668  0.52292855    -0.51400
C57         C  0.48234045  0.54029326  0.47970784     0.70700
O58         O  0.45975174  0.53278877  0.46376149    -0.46200
C59         C  0.44600783  0.58368822  0.34717851     0.75400
O60         O  0.41584613  0.55148479  0.51962327    -0.58100
O61         O  0.46441776  0.58796102  0.38145112    -0.48200
O62         O  0.40610442  0.54747444  0.43450497    -0.54500
C63         C  0.42374872  0.61474349  0.51678594     0.85500
O64         O  0.48366052  0.56491537  0.48403817    -0.56400
O65         O  0.42509699  0.57493008  0.36903657    -0.59700
In66       In  0.18862535  0.57035036  0.47795261     1.36900
C67         C  0.22004200  0.53665332  0.52865462     0.78000
O68         O  0.20394960  0.56252157  0.39218017    -0.60500
O69         O  0.17537215  0.59212205  0.40028257    -0.51400
C70         C  0.14269215  0.54319190  0.49059340     0.70700
O71         O  0.16333364  0.53468670  0.46725588    -0.46200
C72         C  0.21171020  0.61188306  0.52885805     0.75400
O73         O  0.20233772  0.54921343  0.55481047    -0.58100
O74         O  0.18666592  0.60881102  0.52735119    -0.48200
O75         O  0.22041017  0.54046933  0.47688551    -0.54500
C76         C  0.18963925  0.57888911  0.36737548     0.85500
O77         O  0.14495229  0.56656615  0.50744800    -0.56400
O78         O  0.22434548  0.59514292  0.50115244    -0.59700
In79       In  0.16059934  0.85581844  0.83511683     1.36900
C80         C  0.12498206  0.82169483  0.80090673     0.78000
O81         O  0.18816438  0.82329719  0.80680880    -0.60500
O82         O  0.19552860  0.86039511  0.77202037    -0.51400
C83         C  0.12777162  0.89712808  0.82174684     0.70700
O84         O  0.12081719  0.87539204  0.84164301    -0.46200
C85         C  0.17243859  0.85891807  0.94405131     0.75400
O86         O  0.13553593  0.83802977  0.76808216    -0.58100
O87         O  0.17484319  0.87808765  0.91138430    -0.48200
O88         O  0.13182541  0.82408534  0.85102211    -0.54500
C89         C  0.20126095  0.83625229  0.77175549     0.85500
O90         O  0.15221315  0.89815100  0.80809510    -0.56400
O91         O  0.16645342  0.83785647  0.92030783    -0.59700
In92       In  0.16681771  0.59819213  0.83540239     1.36900
C93         C  0.14076498  0.64278492  0.82650620     0.78000
O94         O  0.15666727  0.60427423  0.92574606    -0.60500
O95         O  0.19317089  0.58544367  0.90821120    -0.51400
C96         C  0.13931664  0.55332497  0.80988709     0.70700
O97         O  0.12904678  0.57399655  0.82829856    -0.46200
C98         C  0.20246477  0.61821069  0.76078690     0.75400
O99         O  0.13248423  0.62199170  0.80423147    -0.58100
O100        O  0.17812547  0.61480873  0.75124036    -0.48200
O101        O  0.16080905  0.63994097  0.85726806    -0.54500
C102        C  0.17729449  0.59379666  0.94501135     0.85500
O103        O  0.16433734  0.55525820  0.80440604    -0.56400
O104        O  0.20980249  0.60824061  0.80623574    -0.59700
In105      In  0.38703901  0.66016307  0.64102774     1.36900
C106        C  0.41121967  0.63348638  0.55653658     0.78000
O107        O  0.39676690  0.62367088  0.69392483    -0.60500
O108        O  0.41800580  0.65847670  0.70953067    -0.51400
C109        C  0.39036018  0.71389490  0.64482951     0.70700
O110        O  0.39565959  0.70069382  0.60184481    -0.46200
C111        C  0.33257905  0.65569826  0.64246808     0.75400
O112        O  0.42396354  0.64720082  0.59077670    -0.58100
O113        O  0.34687011  0.65105887  0.68445293    -0.48200
O114        O  0.38633368  0.63536791  0.56223473    -0.54500
C115        C  0.41552610  0.63442043  0.72024485     0.85500
O116        O  0.38444784  0.69973195  0.68593869    -0.56400
O117        O  0.34608850  0.66122978  0.59978897    -0.59700
In118      In  0.24840756  0.66114274  0.64462341     1.36900
C119        C  0.21969032  0.63393331  0.72242580     0.78000
O120        O  0.24675452  0.70132701  0.68899716    -0.60500
O121        O  0.24255867  0.70154335  0.60257855    -0.51400
C122        C  0.30266244  0.65607776  0.64313327     0.70700
O123        O  0.28868385  0.65292054  0.68645597    -0.46200
C124        C  0.22551088  0.63146347  0.56437588     0.75400
O125        O  0.24484142  0.63412132  0.72208386    -0.58100
O126        O  0.21400293  0.65068307  0.58653976    -0.48200
O127        O  0.20981005  0.64888353  0.68654428    -0.54500
C128        C  0.24394620  0.71518064  0.64601244     0.85500
O129        O  0.28891181  0.66080343  0.60044389    -0.56400
O130        O  0.24950495  0.62903662  0.57892582    -0.59700
In131      In  0.24637536  0.79869579  0.64685164     1.36900
C132        C  0.21949671  0.82317184  0.73102323     0.78000
O133        O  0.24396490  0.82756745  0.57432353    -0.60500
O134        O  0.20832962  0.80869387  0.59737433    -0.51400
C135        C  0.30103729  0.80307429  0.64618112     0.70700
O136        O  0.28678991  0.80755508  0.68848147    -0.46200
C137        C  0.24338559  0.74471299  0.64635716     0.75400
O138        O  0.23586732  0.83496561  0.69991811    -0.58100
O139        O  0.23909631  0.75871204  0.60399215    -0.48200
O140        O  0.21856682  0.79887092  0.72199932    -0.54500
C141        C  0.21909854  0.82608875  0.56753292     0.85500
O142        O  0.28740911  0.79774522  0.60383520    -0.56400
O143        O  0.24804829  0.75820033  0.68900873    -0.59700
In144      In  0.38555683  0.79699220  0.64843833     1.36900
C145        C  0.40757858  0.82924522  0.57191183     0.78000
O146        O  0.34506200  0.79871472  0.60383180    -0.60500
O147        O  0.34478501  0.80481435  0.69000841    -0.51400
C148        C  0.39001457  0.74330826  0.64669533     0.70700
O149        O  0.39288875  0.75761681  0.60441980    -0.46200
C150        C  0.41922517  0.81851570  0.72423085     0.75400
O151        O  0.40900611  0.80464850  0.56808197    -0.58100
O152        O  0.39421205  0.81894004  0.73030799    -0.48200
O153        O  0.39295444  0.83698909  0.61123830    -0.54500
C154        C  0.33100598  0.80261602  0.64659358     0.85500
O155        O  0.38588168  0.75634885  0.69039298    -0.56400
O156        O  0.42670578  0.80497896  0.68339567    -0.59700
In157      In  0.95094533  0.38508560  0.83043488     1.36900
C158        C  0.91759876  0.42067851  0.79022916     0.78000
O159        O  0.91521471  0.36035359  0.80625457    -0.60500
O160        O  0.95202499  0.34961275  0.77077194    -0.51400
C161        C  0.99860865  0.41076855  0.81814493     0.70700
O162        O  0.99351622  0.38942886  0.79376509    -0.46200
C163        C  0.94919343  0.37002261  0.93834420     0.75400
O164        O  0.93398835  0.40859994  0.75986087    -0.58100
O165        O  0.96406185  0.35909599  0.90278080    -0.48200
O166        O  0.92024689  0.41624138  0.84139211    -0.54500
C167        C  0.92711012  0.34567995  0.77247033     0.85500
O168        O  0.97965985  0.41825887  0.84850332    -0.56400
O169        O  0.93518082  0.38798414  0.91810144    -0.59700
In170      In  0.69037460  0.38351011  0.85598584     1.36900
C171        C  0.73399245  0.40714404  0.82045417     0.78000
O172        O  0.67377418  0.36213167  0.93198855    -0.60500
O173        O  0.69722027  0.39573294  0.94460195    -0.51400
C174        C  0.64827218  0.41524229  0.83504626     0.70700
O175        O  0.67185384  0.42305639  0.84139371    -0.46200
C176        C  0.70699349  0.34101921  0.79820144     0.75400
O177        O  0.71381839  0.40469245  0.78975397    -0.58100
O178        O  0.68478258  0.35184973  0.78921148    -0.48200
O179        O  0.73058976  0.39991793  0.87013203    -0.54500
C180        C  0.68334242  0.37803173  0.96681152     0.85500
O181        O  0.64635773  0.39055418  0.83637511    -0.56400
O182        O  0.71846262  0.34946343  0.84083886    -0.59700
In183      In  0.96830548  0.36010176  0.46864962     1.36900
C184        C  0.00314479  0.32477335  0.50251758     0.78000
O185        O  0.93966757  0.32742829  0.49320754    -0.60500
O186        O  0.93423996  0.36350666  0.53347711    -0.51400
C187        C  0.99684122  0.40509237  0.47986242     0.70700
O188        O  0.00581681  0.38398476  0.46083082    -0.46200
C189        C  0.95556309  0.35992853  0.35989708     0.75400
O190        O  0.99119954  0.33965582  0.53623312    -0.58100
O191        O  0.94724157  0.37737755  0.39272771    -0.48200
O192        O  0.99923376  0.32994622  0.45209709    -0.54500
C193        C  0.92748277  0.33968603  0.53066179     0.85500
O194        O  0.97284146  0.40330646  0.49571221    -0.56400
O195        O  0.96874334  0.34231054  0.38335089    -0.59700
In196      In  0.96623372  0.10298031  0.46019606     1.36900
C197        C  0.99972960  0.14315425  0.46644227     0.78000
O198        O  0.96745591  0.11433687  0.36962746    -0.60500
O199        O  0.94281785  0.08244697  0.39173017    -0.51400
C200        C  0.99499611  0.05825985  0.47558042     0.70700
O201        O  0.00329461  0.07878500  0.45245844    -0.46200
C202        C  0.93046891  0.12357617  0.53469705     0.75400
O203        O  0.00259257  0.12263959  0.49488413    -0.58100
O204        O  0.92391722  0.11737700  0.48595945    -0.48200
O205        O  0.98008156  0.14254206  0.43401078    -0.54500
C206        C  0.95211836  0.09653818  0.35291503     0.85500
O207        O  0.97119096  0.06041331  0.49272858    -0.56400
O208        O  0.95384688  0.11681655  0.54628441    -0.59700
In209      In  0.65835239  0.35926536  0.49822766     1.36900
C210        C  0.62613126  0.32314291  0.53726808     0.78000
O211        O  0.64554002  0.35007751  0.41112765    -0.60500
O212        O  0.68112440  0.37167865  0.42071444    -0.51400
C213        C  0.63006928  0.40389903  0.51188531     0.70700
O214        O  0.65478891  0.40419028  0.50137656    -0.46200
C215        C  0.69995683  0.33860796  0.55617674     0.75400
O216        O  0.63419147  0.34189785  0.56690338    -0.58100
O217        O  0.69181248  0.36177937  0.56377502    -0.48200
O218        O  0.63347556  0.32378990  0.48697144    -0.54500
C219        C  0.66428132  0.36218613  0.38748257     0.85500
O220        O  0.62083164  0.38128900  0.51885337    -0.56400
O221        O  0.68903112  0.32755332  0.51560947    -0.59700
In222      In  0.65682708  0.10138461  0.50366605     1.36900
C223        C  0.62682131  0.14211154  0.52635836     0.78000
O224        O  0.68847193  0.13172865  0.52254878    -0.60500
O225        O  0.68889942  0.09773150  0.57200340    -0.51400
C226        C  0.62738507  0.05695642  0.51843746     0.70700
O227        O  0.61961799  0.07953744  0.53121913    -0.46200
C228        C  0.66701883  0.10085979  0.39388243     0.75400
O229        O  0.63537309  0.12740249  0.56452710    -0.58100
O230        O  0.68303127  0.09121889  0.42874318    -0.48200
O231        O  0.63099920  0.13397002  0.47774571    -0.54500
C232        C  0.69841500  0.12038431  0.56374716     0.85500
O233        O  0.65141291  0.05672874  0.50269963    -0.56400
O234        O  0.64667390  0.11084107  0.41570523    -0.59700
In235      In  0.93736126  0.06657529  0.82239470     1.36900
C236        C  0.90340587  0.03452132  0.77508021     0.78000
O237        O  0.91909267  0.06294559  0.90779751    -0.60500
O238        O  0.95399088  0.08557763  0.90024329    -0.51400
C239        C  0.98127230  0.03588030  0.81459461     0.70700
O240        O  0.98051970  0.05856852  0.79328718    -0.46200
C241        C  0.91823742  0.10972401  0.76897652     0.75400
O242        O  0.92192074  0.04523157  0.74740116    -0.58100
O243        O  0.94297903  0.10529253  0.77318305    -0.48200
O244        O  0.90365723  0.03897198  0.82655466    -0.54500
C245        C  0.93679409  0.07575623  0.93262556     0.85500
O246        O  0.95965377  0.02930539  0.83712427    -0.56400
O247        O  0.90407104  0.09336054  0.79453704    -0.59700
In248      In  0.68754799  0.07370576  0.86374739     1.36900
C249        C  0.72378799  0.03853481  0.83429376     0.78000
O250        O  0.72220712  0.09705786  0.82814761    -0.60500
O251        O  0.68414283  0.11179604  0.81072979    -0.51400
C252        C  0.64277705  0.04421885  0.85034328     0.70700
O253        O  0.66051858  0.03985544  0.88566894    -0.46200
C254        C  0.68639747  0.08718047  0.97239407     0.75400
O255        O  0.70693814  0.04709966  0.79994200    -0.58100
O256        O  0.67004128  0.09642575  0.93775993    -0.48200
O257        O  0.71987643  0.04621622  0.88323043    -0.54500
C258        C  0.70900524  0.11405795  0.80275242     0.85500
O259        O  0.64763222  0.06427146  0.82108474    -0.56400
O260        O  0.70394527  0.07318263  0.95016620    -0.59700
In261      In  0.74554304  0.29727455  0.67425038     1.36900
C262        C  0.71836121  0.32432198  0.59445466     0.78000
O263        O  0.74415237  0.25639075  0.63463147    -0.60500
O264        O  0.73789995  0.25796799  0.72058178    -0.51400
C265        C  0.79998827  0.30292416  0.66580389     0.70700
O266        O  0.78450432  0.30576349  0.62518035    -0.46200
C267        C  0.72030409  0.32278697  0.75857889     0.75400
O268        O  0.73298520  0.33532595  0.62990759    -0.58100
O269        O  0.70813827  0.30982237  0.72223202    -0.48200
O270        O  0.71913817  0.29964052  0.59724030    -0.54500
C271        C  0.74037437  0.24347239  0.67855272     0.85500
O272        O  0.78771701  0.29831097  0.71047536    -0.56400
O273        O  0.74531253  0.32089440  0.75476830    -0.59700
In274      In  0.74601423  0.16043904  0.67952532     1.36900
C275        C  0.72219682  0.13299075  0.76366776     0.78000
O276        O  0.71894177  0.15861543  0.60394928    -0.60500
O277        O  0.73206528  0.12263243  0.63613039    -0.51400
C278        C  0.74037868  0.21402005  0.68000688     0.70700
O279        O  0.73939186  0.20031321  0.72375908    -0.46200
C280        C  0.80068937  0.15801407  0.66967258     0.75400
O281        O  0.71038783  0.15106949  0.73780052    -0.58100
O282        O  0.78505897  0.15382285  0.62978263    -0.48200
O283        O  0.74645200  0.13092551  0.75031525    -0.54500
C284        C  0.71739573  0.13401358  0.60146289     0.85500
O285        O  0.74274540  0.20035626  0.63680306    -0.56400
O286        O  0.78850651  0.16223460  0.71463981    -0.59700
In287      In  0.88492655  0.16338585  0.65649226     1.36900
C288        C  0.90612382  0.13052994  0.73358012     0.78000
O289        O  0.84320149  0.15620075  0.61924090    -0.60500
O290        O  0.84564591  0.16313462  0.70528825    -0.51400
C291        C  0.88999511  0.21728204  0.65718644     0.70700
O292        O  0.89109231  0.20334700  0.70035769    -0.46200
C293        C  0.91345470  0.13840402  0.57508911     0.75400
O294        O  0.91824408  0.15063438  0.71629400    -0.58100
O295        O  0.92342592  0.14967848  0.61643309    -0.48200
O296        O  0.88269604  0.12864825  0.71528209    -0.54500
C297        C  0.83055898  0.15887567  0.66448451     0.85500
O298        O  0.88770190  0.20376768  0.61374559    -0.56400
O299        O  0.88845002  0.14112914  0.57238188    -0.59700
In300      In  0.88450637  0.30043847  0.65639164     1.36900
C301        C  0.90940657  0.32616552  0.57115448     0.78000
O302        O  0.88730272  0.32825985  0.73013786    -0.60500
O303        O  0.92312478  0.31113085  0.70297344    -0.51400
C304        C  0.82984757  0.30362480  0.66188895     0.70700
O305        O  0.84290936  0.30782045  0.61779219    -0.46200
C306        C  0.88984748  0.24675722  0.65721873     0.75400
O307        O  0.89516652  0.33774313  0.60667386    -0.58100
O308        O  0.89261520  0.26075149  0.70002209    -0.48200
O309        O  0.90882594  0.30160214  0.57617782    -0.54500
C310        C  0.91227642  0.32743232  0.73515204     0.85500
O311        O  0.84459993  0.29897059  0.70279976    -0.56400
O312        O  0.88566017  0.26015773  0.61420825    -0.59700
C313        C  0.83580566  0.02998770  0.71837605    -0.05100
C314        C  0.82627588  0.00878060  0.75041704     0.09100
C315        C  0.84448174  0.99075294  0.77301869    -0.02400
C316        C  0.87173869  0.99717610  0.77446113    -0.00700
C317        C  0.88071238  0.02068367  0.75002621    -0.04300
C318        C  0.86330229  0.03529922  0.71634961     0.02700
C319        C  0.79912026  0.01067455  0.77529604     0.09500
C320        C  0.83466673  0.96765004  0.80147224     0.35400
C321        C  0.87305984  0.05797474  0.68619616     0.38900
C322        C  0.77612301  0.00442615  0.74487548    -0.04700
C323        C  0.75074106  0.01148397  0.76568060     0.02500
C324        C  0.74838890  0.02399082  0.81801150    -0.04300
C325        C  0.77144474  0.02651061  0.85149100    -0.00500
C326        C  0.79667100  0.02142195  0.82888021    -0.03100
C327        C  0.77886894  0.99177926  0.69139247     0.36200
C328        C  0.76986638  0.03548624  0.90855467     0.39800
C329        C  0.72724551  0.00570229  0.73321169     0.38900
C330        C  0.82029194  0.02955909  0.85906217     0.35900
C331        C  0.81718378  0.04860963  0.69498096     0.36500
C332        C  0.89005452  0.98126758  0.80626510     0.39800
N333        N  0.70864296  0.00082951  0.70705023    -0.38300
N334        N  0.78132033  0.98162462  0.64877742    -0.39900
N335        N  0.76876024  0.04241821  0.95422324    -0.37600
N336        N  0.83904932  0.03646392  0.88257252    -0.40000
N337        N  0.82678787  0.94921922  0.82421359    -0.39800
N338        N  0.90467352  0.96875831  0.83200516    -0.37400
N339        N  0.88085702  0.07596588  0.66180817    -0.38500
N340        N  0.80231455  0.06365669  0.67717657    -0.40100
C341        C  0.67230715  0.11691685  0.11656563    -0.05100
C342        C  0.68093110  0.09671476  0.15229478     0.09100
C343        C  0.69123157  0.07356541  0.12902714    -0.02400
C344        C  0.69342899  0.07072269  0.07078386    -0.00700
C345        C  0.68481794  0.09097009  0.03442103    -0.04300
C346        C  0.67420001  0.11409210  0.05809607     0.02700
C347        C  0.67749999  0.09892302  0.21441958     0.09500
C348        C  0.69843506  0.05204408  0.16534082     0.35400
C349        C  0.66555406  0.13531633  0.02259458     0.38900
C350        C  0.65218463  0.09502404  0.23862463    -0.04700
C351        C  0.64877405  0.09617977  0.29680653     0.02500
C352        C  0.67093980  0.10024820  0.33211271    -0.04300
C353        C  0.69633092  0.10431311  0.30776836    -0.00500
C354        C  0.69952276  0.10389371  0.24924674    -0.03100
C355        C  0.62958633  0.08927375  0.20337961     0.36200
C356        C  0.71903079  0.11010215  0.34266211     0.39800
C357        C  0.62229036  0.09275501  0.32004055     0.38900
C358        C  0.72542991  0.10889972  0.22467529     0.35900
C359        C  0.66089444  0.14041920  0.14026164     0.36500
C360        C  0.70356307  0.04626635  0.04881962     0.39800
N361        N  0.60110968  0.09029405  0.33850863    -0.38300
N362        N  0.61164324  0.08464913  0.17512758    -0.39900
N363        N  0.73711228  0.11483566  0.37047282    -0.37600
N364        N  0.74611500  0.11298890  0.20508266    -0.40000
N365        N  0.70392520  0.03488294  0.19441712    -0.39800
N366        N  0.71170037  0.02669862  0.03163248    -0.37400
N367        N  0.65862504  0.15232281  0.99449316    -0.38500
N368        N  0.65156357  0.15901934  0.15950307    -0.40100
C369        C  0.58158704  0.26424150  0.53981996    -0.05100
C370        C  0.59651968  0.24836229  0.57599717     0.09100
C371        C  0.61479875  0.26005037  0.61253628    -0.02400
C372        C  0.62227334  0.28631502  0.60453381    -0.00700
C373        C  0.61126973  0.30064105  0.56010203    -0.04300
C374        C  0.58934000  0.29040971  0.53108990     0.02700
C375        C  0.60101534  0.22054426  0.56061718     0.09500
C376        C  0.62836160  0.24412383  0.65349130     0.35400
C377        C  0.57595001  0.30635774  0.48998780     0.38900
C378        C  0.61902913  0.21538032  0.51686336    -0.04700
C379        C  0.62643862  0.18961788  0.50468670     0.02500
C380        C  0.61613750  0.16862334  0.53664118    -0.04300
C381        C  0.59797886  0.17373689  0.58031504    -0.00500
C382        C  0.59028174  0.19974251  0.59203632    -0.03100
C383        C  0.63137434  0.23684733  0.48640737     0.36200
C384        C  0.58733742  0.15236790  0.61325574     0.39800
C385        C  0.64636320  0.18511839  0.46177236     0.38900
C386        C  0.57204412  0.20528289  0.63724490     0.35900
C387        C  0.56035155  0.25278439  0.50752370     0.36500
C388        C  0.64342427  0.29747607  0.63745710     0.39800
N389        N  0.66229297  0.18156852  0.42775285    -0.38300
N390        N  0.64134108  0.25394016  0.46253781    -0.39900
N391        N  0.57884573  0.13535420  0.63969965    -0.37600
N392        N  0.55754738  0.20981596  0.67342896    -0.40000
N393        N  0.63911557  0.23139021  0.68607504    -0.39800
N394        N  0.66029097  0.30663568  0.66359043    -0.37400
N395        N  0.56540670  0.31926993  0.45742900    -0.38500
N396        N  0.54323231  0.24369004  0.48191368    -0.40100
C397        C  0.91524104  0.07939633  0.08593943    -0.05100
C398        C  0.93998834  0.08041774  0.11329631     0.09100
C399        C  0.96362358  0.07920993  0.08146008    -0.02400
C400        C  0.96261143  0.07816337  0.02276019    -0.00700
C401        C  0.93779348  0.07789533  0.99488738    -0.04300
C402        C  0.91408270  0.07795410  0.02726336     0.02700
C403        C  0.94122801  0.08423161  0.17540593     0.09500
C404        C  0.98912682  0.07865984  0.10936748     0.35400
C405        C  0.88827510  0.07699675  0.00056856     0.38900
C406        C  0.94335819  0.06267614  0.21181739    -0.04700
C407        C  0.94591853  0.06659984  0.26982799     0.02500
C408        C  0.94660815  0.09222662  0.29222681    -0.04300
C409        C  0.94380691  0.11376826  0.25549298    -0.00500
C410        C  0.94071359  0.10971730  0.19774232    -0.03100
C411        C  0.94298476  0.03639396  0.18939984     0.36200
C412        C  0.94374705  0.14026534  0.27684472     0.39800
C413        C  0.94916510  0.04417874  0.30605304     0.38900
C414        C  0.93666679  0.13181678  0.16091777     0.35900
C415        C  0.89091523  0.07982066  0.11853437     0.36500
C416        C  0.98725364  0.07633537  0.99138317     0.39800
N417        N  0.95180297  0.02634220  0.33512053    -0.38300
N418        N  0.94260191  0.01540244  0.17154813    -0.39900
N419        N  0.94372609  0.16149521  0.29341243    -0.37600
N420        N  0.93312144  0.14926351  0.13122934    -0.40000
N421        N  0.00948056  0.07797994  0.13154284    -0.39800
N422        N  0.00689714  0.07484852  0.96624640    -0.37400
N423        N  0.86763441  0.07611851  0.97957572    -0.38500
N424        N  0.87155327  0.08012071  0.14477475    -0.40100
C425        C  0.00895096  0.25541656  0.54691402    -0.05100
C426        C  0.03027000  0.24707719  0.51266991     0.09100
C427        C  0.04745116  0.26593803  0.48896375    -0.02400
C428        C  0.04037615  0.29263485  0.49039086    -0.00700
C429        C  0.01720846  0.30057776  0.51915026    -0.04300
C430        C  0.00344578  0.28226164  0.55246284     0.02700
C431        C  0.03176417  0.21895435  0.49561351     0.09500
C432        C  0.07145851  0.25763216  0.46042857     0.35400
C433        C  0.98223109  0.29072331  0.58926974     0.38900
C434        C  0.02432079  0.21177427  0.44121606    -0.04700
C435        C  0.01733045  0.18569771  0.42960241     0.02500
C436        C  0.01654412  0.16698714  0.47277909    -0.04300
C437        C  0.02853537  0.17318355  0.52423320    -0.00500
C438        C  0.03623284  0.19921018  0.53542152    -0.03100
C439        C  0.02219351  0.23138151  0.39788794     0.36200
C440        C  0.03182431  0.15337026  0.56672851     0.39800
C441        C  0.01064778  0.17821837  0.37326763     0.38900
C442        C  0.04715825  0.20609484  0.58905331     0.35900
C443        C  0.99108520  0.23645131  0.57225769     0.36500
C444        C  0.05636877  0.31183242  0.46104909     0.39800
N445        N  0.00557531  0.17217671  0.32829022    -0.38300
N446        N  0.02070558  0.24691521  0.36305405    -0.39900
N447        N  0.03468142  0.13756231  0.60060629    -0.37600
N448        N  0.05579948  0.21163482  0.63187178    -0.40000
N449        N  0.09060133  0.25088540  0.43781598    -0.39800
N450        N  0.06922224  0.32717478  0.43773460    -0.37400
N451        N  0.96566347  0.29747120  0.61942371    -0.38500
N452        N  0.97671436  0.22136183  0.59224002    -0.40100
C453        C  0.64368456  0.37344815  0.23621603    -0.05100
C454        C  0.66838202  0.37202165  0.20824956     0.09100
C455        C  0.69171720  0.36731933  0.23911234    -0.02400
C456        C  0.69045320  0.36402031  0.29737420    -0.00700
C457        C  0.66576448  0.36549747  0.32569038    -0.04300
C458        C  0.64232808  0.37020696  0.29454067     0.02700
C459        C  0.66994466  0.37402323  0.14589326     0.09500
C460        C  0.71706732  0.36527045  0.21042298     0.35400
C461        C  0.61671951  0.37213807  0.32238646     0.38900
C462        C  0.67454374  0.39831020  0.11976502    -0.04700
C463        C  0.67892158  0.39966587  0.06168396     0.02500
C464        C  0.67844320  0.37660436  0.02861142    -0.04300
C465        C  0.67298752  0.35237632  0.05520068    -0.00500
C466        C  0.66847630  0.35122832  0.11321341    -0.03100
C467        C  0.67439326  0.42200882  0.15281049     0.36200
C468        C  0.67321923  0.32825958  0.02372001     0.39800
C469        C  0.68360902  0.42505342  0.03640809     0.38900
C470        C  0.66220613  0.32647998  0.13975817     0.35900
C471        C  0.61959662  0.37795304  0.20473710     0.36500
C472        C  0.71445979  0.35768224  0.32764693     0.39800
N473        N  0.68745960  0.44534849  0.01655385    -0.38300
N474        N  0.67402296  0.44094160  0.17905983    -0.39900
N475        N  0.67353607  0.30889831  0.99893429    -0.37600
N476        N  0.65695098  0.30689660  0.16134323    -0.40000
N477        N  0.73722512  0.36356697  0.18729273    -0.39800
N478        N  0.73358550  0.35242354  0.35175564    -0.37400
N479        N  0.59630051  0.37357169  0.34462506    -0.38500
N480        N  0.60033742  0.38148213  0.17968444    -0.40100
C481        C  0.97238402  0.35322397  0.08595517    -0.05100
C482        C  0.94912395  0.35800179  0.11744942     0.09100
C483        C  0.92519934  0.36360630  0.08958513    -0.02400
C484        C  0.92492722  0.36657112  0.03112292    -0.00700
C485        C  0.94863835  0.36340282  0.99937501    -0.04300
C486        C  0.97214445  0.35567920  0.02732457     0.02700
C487        C  0.95002451  0.35854742  0.18006966     0.09500
C488        C  0.90081911  0.36637845  0.12155160     0.35400
C489        C  0.99651828  0.35129590  0.99629434     0.38900
C490        C  0.95742232  0.38174724  0.20788932    -0.04700
C491        C  0.95821697  0.38257925  0.26660764     0.02500
C492        C  0.95157777  0.36016249  0.29833906    -0.04300
C493        C  0.94381503  0.33704402  0.27037836    -0.00500
C494        C  0.94295038  0.33629033  0.21165473    -0.03100
C495        C  0.96442597  0.40478561  0.17577049     0.36200
C496        C  0.93629425  0.31405221  0.30216442     0.39800
C497        C  0.96712860  0.40620494  0.29412093     0.38900
C498        C  0.93480042  0.31256780  0.18356867     0.35900
C499        C  0.99672798  0.34606968  0.11418303     0.36500
C500        C  0.89998373  0.37264428  0.00397950     0.39800
N501        N  0.97428714  0.42508592  0.31590898    -0.38300
N502        N  0.96998934  0.42311266  0.14993524    -0.39900
N503        N  0.93028283  0.29577232  0.32772694    -0.37600
N504        N  0.92821602  0.29365473  0.16113980    -0.40000
N505        N  0.88147563  0.36827344  0.14750913    -0.39800
N506        N  0.87996573  0.37751196  0.98280427    -0.37400
N507        N  0.01594922  0.34771662  0.97147085    -0.38500
N508        N  0.01614316  0.34029411  0.13669710    -0.40100
C509        C  0.85394574  0.43059889  0.71387318    -0.05100
C510        C  0.83944494  0.44256564  0.75696675     0.09100
C511        C  0.85317633  0.45654526  0.79815404    -0.02400
C512        C  0.88086584  0.45318804  0.80380013    -0.00700
C513        C  0.89446484  0.43561246  0.76842183    -0.04300
C514        C  0.88165641  0.42713294  0.71935656     0.02700
C515        C  0.81187403  0.43325288  0.76917168     0.09500
C516        C  0.83837968  0.47247585  0.83722190     0.35400
C517        C  0.89612661  0.41269551  0.67721354     0.38900
C518        C  0.80876001  0.41026188  0.80111555    -0.04700
C519        C  0.78322781  0.40148535  0.81617171     0.02500
C520        C  0.76046759  0.41571080  0.79974717    -0.04300
C521        C  0.76347867  0.43756650  0.76417661    -0.00500
C522        C  0.78924354  0.44669023  0.75000197    -0.03100
C523        C  0.83199539  0.39565097  0.81901495     0.36200
C524        C  0.74022544  0.45064641  0.74224372     0.39800
C525        C  0.78047571  0.37703238  0.84652486     0.38900
C526        C  0.79258158  0.47010655  0.71679006     0.35900
C527        C  0.83988614  0.41984366  0.66675416     0.36500
C528        C  0.89503735  0.46657988  0.84763686     0.39800
N529        N  0.77839981  0.35746208  0.87037462    -0.38300
N530        N  0.85048021  0.38400810  0.83327164    -0.39900
N531        N  0.72165922  0.46083934  0.72404459    -0.37600
N532        N  0.79532571  0.48890448  0.69056834    -0.40000
N533        N  0.82645906  0.48534060  0.86795563    -0.39800
N534        N  0.90635371  0.47746560  0.88239750    -0.37400
N535        N  0.90761745  0.40123836  0.64339479    -0.38500
N536        N  0.82860679  0.41148422  0.62894865    -0.40100
C537        C  0.07882492  0.50948747  0.77665420    -0.05100
C538        C  0.08828261  0.48419231  0.78917591     0.09100
C539        C  0.11571034  0.48117486  0.80074095    -0.02400
C540        C  0.13282617  0.50340548  0.80476491    -0.00700
C541        C  0.12276598  0.52910583  0.79710891    -0.04300
C542        C  0.09581790  0.53164502  0.78011836     0.02700
C543        C  0.06838290  0.46195160  0.79760763     0.09500
C544        C  0.12623740  0.45514902  0.80945236     0.35400
C545        C  0.08537143  0.55709556  0.76515006     0.38900
C546        C  0.05997006  0.44572756  0.75344021    -0.04700
C547        C  0.03817068  0.42804780  0.76047021     0.02500
C548        C  0.02418804  0.42649326  0.81181450    -0.04300
C549        C  0.03376056  0.44181123  0.85670410    -0.00500
C550        C  0.05554280  0.45923706  0.84955258    -0.03100
C551        C  0.07327107  0.44780076  0.70017654     0.36200
C552        C  0.02122847  0.43984597  0.91089230     0.39800
C553        C  0.02934444  0.41252435  0.71373262     0.38900
C554        C  0.06433003  0.47529878  0.89556133     0.35900
C555        C  0.05108936  0.51272703  0.76174031     0.36500
C556        C  0.16054390  0.49974051  0.81905572     0.39800
N557        N  0.02230271  0.40013076  0.67641759    -0.38300
N558        N  0.08386959  0.44936611  0.65756338    -0.39900
N559        N  0.01127595  0.43843036  0.95421311    -0.37600
N560        N  0.07150396  0.48828181  0.93182906    -0.40000
N561        N  0.13480286  0.43438512  0.81596415    -0.39800
N562        N  0.18271248  0.49684235  0.83033637    -0.37400
N563        N  0.07691572  0.57730162  0.75278557    -0.38500
N564        N  0.02891371  0.51505432  0.74998331    -0.40100
C565        C  0.09567780  0.96539179  0.82860738    -0.05100
C566        C  0.06921499  0.95995887  0.81258048     0.09100
C567        C  0.06256767  0.93428785  0.79616370    -0.02400
C568        C  0.08163068  0.91395419  0.79894032    -0.00700
C569        C  0.10819134  0.91921790  0.81563394    -0.04300
C570        C  0.11511489  0.94525196  0.82963340     0.02700
C571        C  0.04799659  0.98095991  0.81435141     0.09500
C572        C  0.03608350  0.92892597  0.77529306     0.35400
C573        C  0.14188688  0.95117420  0.84791078     0.38900
C574        C  0.04392861  0.99778693  0.76867923    -0.04700
C575        C  0.02334376  0.01682212  0.76970068     0.02500
C576        C  0.00521973  0.01799609  0.81499794    -0.04300
C577        C  0.00952825  0.00098966  0.86090691    -0.00500
C578        C  0.03128544  0.98339973  0.86125994    -0.03100
C579        C  0.06076405  0.99499304  0.72009258     0.36200
C580        C  0.99175625  0.00155630  0.90860426     0.39800
C581        C  0.02071598  0.03475753  0.72349959     0.38900
C582        C  0.03684645  0.96806790  0.91054418     0.35900
C583        C  0.10279049  0.99179796  0.84452028     0.36500
C584        C  0.07369142  0.88753129  0.78440667     0.39800
N585        N  0.01904060  0.04922734  0.68670256    -0.38300
N586        N  0.07428319  0.99229680  0.68155745    -0.39900
N587        N  0.97742418  0.00177627  0.94634949    -0.37600
N588        N  0.04151260  0.95619386  0.95024300    -0.40000
N589        N  0.01506534  0.92476004  0.75792188    -0.39800
N590        N  0.06726956  0.86642627  0.77336430    -0.37400
N591        N  0.16325313  0.95591572  0.86260333    -0.38500
N592        N  0.10837462  0.01293507  0.85705719    -0.40100
C593        C  0.13701831  0.71530941  0.79510403    -0.05100
C594        C  0.10948440  0.71877616  0.78593749     0.09100
C595        C  0.09202451  0.69726660  0.79013093    -0.02400
C596        C  0.10195059  0.67243745  0.80511219    -0.00700
C597        C  0.12957602  0.66889645  0.81368819    -0.04300
C598        C  0.14711968  0.69039056  0.80702451     0.02700
C599        C  0.09944109  0.74578878  0.77646809     0.09500
C600        C  0.06387979  0.70087562  0.77965239     0.35400
C601        C  0.17579134  0.68694454  0.81006933     0.38900
C602        C  0.10795753  0.75945246  0.72867571    -0.04700
C603        C  0.11371152  0.78636333  0.73267040     0.02500
C604        C  0.10806989  0.79958436  0.78291751    -0.04300
C605        C  0.09193654  0.78716025  0.82320303    -0.00500
C606        C  0.08908157  0.75985496  0.82189953    -0.03100
C607        C  0.11437672  0.74505768  0.67859522     0.36200
C608        C  0.08078310  0.80210121  0.86882764     0.39800
C609        C  0.12880399  0.79900315  0.68867312     0.38900
C610        C  0.07911372  0.74615157  0.87046964     0.35900
C611        C  0.15506349  0.73760374  0.79366194     0.36500
C612        C  0.08356534  0.65089844  0.81366478     0.39800
N613        N  0.14119555  0.80885389  0.65378424    -0.38300
N614        N  0.11930803  0.73356463  0.63853097    -0.39900
N615        N  0.07179872  0.81413287  0.90495011    -0.37600
N616        N  0.07145973  0.73521736  0.90950242    -0.40000
N617        N  0.04142941  0.70390710  0.77130928    -0.39800
N618        N  0.06877840  0.63383240  0.82084591    -0.37400
N619        N  0.19865409  0.68435892  0.81205890    -0.38500
N620        N  0.16940905  0.75534276  0.79267654    -0.40100
C621        C  0.16763984  0.59670700  0.21891424    -0.05100
C622        C  0.18641314  0.58314583  0.18611380     0.09100
C623        C  0.20630392  0.56834714  0.21255885    -0.02400
C624        C  0.20784959  0.56749346  0.27119902    -0.00700
C625        C  0.18914353  0.58133606  0.30478634    -0.04300
C626        C  0.16913805  0.59617663  0.27759895     0.02700
C627        C  0.18531910  0.58480187  0.12358177     0.09500
C628        C  0.22484813  0.55328790  0.17915186     0.35400
C629        C  0.14970874  0.61093644  0.30933259     0.38900
C630        C  0.20290701  0.60149223  0.09414162    -0.04700
C631        C  0.20110893  0.60392182  0.03558084     0.02500
C632        C  0.18112913  0.59024278  0.00614308    -0.04300
C633        C  0.16322242  0.57406922  0.03599738    -0.00500
C634        C  0.16589491  0.57064704  0.09392444    -0.03100
C635        C  0.22234714  0.61670207  0.12466261     0.36200
C636        C  0.14149679  0.56139593  0.00705263     0.39800
C637        C  0.21885599  0.62163566  0.00635334     0.38900
C638        C  0.14865731  0.55243159  0.12312432     0.35900
C639        C  0.14625278  0.61079567  0.19195247     0.36500
C640        C  0.22903220  0.55229028  0.29615646     0.39800
N641        N  0.23310211  0.63599057  0.98377328    -0.38300
N642        N  0.23767633  0.62875531  0.14966415    -0.39900
N643        N  0.12400000  0.55174021  0.98363940    -0.37600
N644        N  0.13501878  0.53773684  0.14631139    -0.40000
N645        N  0.23957780  0.54112010  0.15272820    -0.39800
N646        N  0.24594271  0.54008938  0.31580938    -0.37400
N647        N  0.13421034  0.62287253  0.33429751    -0.38500
N648        N  0.12899880  0.62168572  0.17029812    -0.40100
C649        C  0.09952763  0.48216759  0.51207119    -0.05100
C650        C  0.07391549  0.49107173  0.49742363     0.09100
C651        C  0.07044167  0.51792323  0.48501295    -0.02400
C652        C  0.09254129  0.53538923  0.48504094    -0.00700
C653        C  0.11840098  0.52617504  0.49748481    -0.04300
C654        C  0.12152848  0.49948480  0.51215940     0.02700
C655        C  0.05147334  0.47146269  0.49058247     0.09500
C656        C  0.04424567  0.52738033  0.47030991     0.35400
C657        C  0.14755909  0.48964479  0.52748920     0.38900
C658        C  0.03252671  0.46697774  0.53319949    -0.04700
C659        C  0.01323546  0.44668925  0.52821575     0.02500
C660        C  0.01372343  0.42955820  0.48198443    -0.04300
C661        C  0.03216248  0.43482414  0.43848913    -0.00500
C662        C  0.05055857  0.45573788  0.44253926    -0.03100
C663        C  0.03382428  0.48240927  0.58346032     0.36200
C664        C  0.03228669  0.41877775  0.38888131     0.39800
C665        C  0.99348311  0.44307122  0.57159395     0.38900
C666        C  0.06926789  0.46065099  0.39762559     0.35900
C667        C  0.10337456  0.45480498  0.52577712     0.36500
C668        C  0.08889362  0.56245531  0.46887860     0.39800
N669        N  0.97755114  0.44046595  0.60602922    -0.38300
N670        N  0.03513277  0.49459787  0.62376509    -0.39900
N671        N  0.03253561  0.40594624  0.34936490    -0.37600
N672        N  0.08423617  0.46456029  0.36190005    -0.40000
N673        N  0.02332165  0.53497373  0.45862859    -0.39800
N674        N  0.08605920  0.58404793  0.45574810    -0.37400
N675        N  0.16834997  0.48184674  0.53958411    -0.38500
N676        N  0.10642216  0.43296013  0.53656106    -0.40100
C677        C  0.59203376  0.46549108  0.46732297    -0.05100
C678        C  0.57262347  0.46758338  0.50987154     0.09100
C679        C  0.57397488  0.45029013  0.55554542    -0.02400
C680        C  0.59341270  0.43027144  0.55725387    -0.00700
C681        C  0.61240081  0.42759878  0.51397263    -0.04300
C682        C  0.61187552  0.44572709  0.46943809     0.02700
C683        C  0.54939669  0.48635357  0.50443589     0.09500
C684        C  0.55477651  0.45275367  0.60031899     0.35400
C685        C  0.63051052  0.44292154  0.42366655     0.38900
C686        C  0.52420532  0.47692945  0.48812776    -0.04700
C687        C  0.50227365  0.49413296  0.48241228     0.02500
C688        C  0.50525462  0.52157432  0.49107615    -0.04300
C689        C  0.53036287  0.53065886  0.51052313    -0.00500
C690        C  0.55206936  0.51313803  0.51744621    -0.03100
C691        C  0.52073747  0.44913666  0.47819312     0.36200
C692        C  0.53392093  0.55785496  0.52570081     0.39800
C693        C  0.47646914  0.48294142  0.46956480     0.38900
C694        C  0.57702674  0.52248436  0.54002074     0.35900
C695        C  0.59085639  0.48303694  0.42009418     0.36500
C696        C  0.59354065  0.41205366  0.60343631     0.39800
N697        N  0.45589379  0.47380520  0.46007059    -0.38300
N698        N  0.51801833  0.42693272  0.47082995    -0.39900
N699        N  0.53678887  0.57949246  0.53843825    -0.37600
N700        N  0.59684550  0.52988321  0.55862477    -0.40000
N701        N  0.53939030  0.45485866  0.63590229    -0.39800
N702        N  0.59357972  0.39737934  0.64003964    -0.37400
N703        N  0.64529517  0.44062241  0.38701279    -0.38500
N704        N  0.58986580  0.49705242  0.38240579    -0.40100
C705        C  0.27876122  0.49302812  0.53301264    -0.05100
C706        C  0.29553485  0.51021324  0.56230106     0.09100
C707        C  0.28404957  0.52823302  0.59973786    -0.02400
C708        C  0.25642890  0.53301401  0.59776088    -0.00700
C709        C  0.24119050  0.52116023  0.55564459    -0.04300
C710        C  0.25157531  0.49913460  0.52780734     0.02700
C711        C  0.32294088  0.51522558  0.54007286     0.09500
C712        C  0.30082179  0.54368301  0.63586373     0.35400
C713        C  0.23504874  0.48464369  0.48945974     0.38900
C714        C  0.32561640  0.52749777  0.48762719    -0.04700
C715        C  0.35086289  0.53496366  0.46760585     0.02500
C716        C  0.37385737  0.53029927  0.49993728    -0.04300
C717        C  0.37131827  0.51622979  0.55037355    -0.00500
C718        C  0.34589486  0.50904559  0.57072065    -0.03100
C719        C  0.30216415  0.53337473  0.45476773     0.36200
C720        C  0.39490402  0.50859393  0.58072801     0.39800
C721        C  0.35261127  0.54862662  0.41476376     0.38900
C722        C  0.34329927  0.49570944  0.62357561     0.35900
C723        C  0.29027959  0.47154174  0.50202782     0.36500
C724        C  0.24444905  0.55216114  0.63450771     0.39800
N725        N  0.35369285  0.55943180  0.37257458    -0.38300
N726        N  0.28350257  0.53784411  0.42843679    -0.39900
N727        N  0.41382030  0.50233360  0.60449564    -0.37600
N728        N  0.34124384  0.48526280  0.66599938    -0.40000
N729        N  0.31410439  0.55598332  0.66505184    -0.39800
N730        N  0.23478648  0.56719467  0.66421757    -0.37400
N731        N  0.22191971  0.47316805  0.45852743    -0.38500
N732        N  0.29958872  0.45438011  0.47752646    -0.40100
C733        C  0.19258457  0.88573944  0.21057146    -0.05100
C734        C  0.17693140  0.86604359  0.18615782     0.09100
C735        C  0.16201831  0.84911721  0.22064286    -0.02400
C736        C  0.16307637  0.85147913  0.27923321    -0.00700
C737        C  0.17855192  0.87147757  0.30438405    -0.04300
C738        C  0.19311269  0.88882551  0.26890689     0.02700
C739        C  0.17562983  0.86374392  0.12381947     0.09500
C740        C  0.14519225  0.82941754  0.19544257     0.35400
C741        C  0.20817367  0.91062398  0.29135706     0.38900
C742        C  0.19402805  0.84799630  0.09461041    -0.04700
C743        C  0.19319791  0.84647651  0.03592300     0.02500
C744        C  0.17434063  0.86117293  0.00576810    -0.04300
C745        C  0.15566971  0.87662294  0.03518637    -0.00500
C746        C  0.15621563  0.87773816  0.09385633    -0.03100
C747        C  0.21367410  0.83318590  0.12522763     0.36200
C748        C  0.13500391  0.89040664  0.00521167     0.39800
C749        C  0.21189207  0.82992167  0.00650642     0.38900
C750        C  0.13638174  0.89279767  0.12377009     0.35900
C751        C  0.20803912  0.90313581  0.17519873     0.36500
C752        C  0.14820891  0.83303929  0.31308400     0.39800
N753        N  0.22677573  0.81664994  0.98301861    -0.38300
N754        N  0.22928130  0.82137124  0.14990818    -0.39900
N755        N  0.11841512  0.90126691  0.98134548    -0.37600
N756        N  0.12048554  0.90457734  0.14797688    -0.40000
N757        N  0.13164654  0.81385327  0.17512022    -0.39800
N758        N  0.13632435  0.81822453  0.33987012    -0.37400
N759        N  0.22011740  0.92813690  0.30881252    -0.38500
N760        N  0.22041069  0.91695670  0.14701081    -0.40100
C761        C  0.09413901  0.97515777  0.52917377    -0.05100
C762        C  0.06972994  0.96989300  0.50247065     0.09100
C763        C  0.06583565  0.94483127  0.47882559    -0.02400
C764        C  0.08656023  0.92586765  0.47937024    -0.00700
C765        C  0.11154746  0.93178321  0.50320118    -0.04300
C766        C  0.11490506  0.95639680  0.52916316     0.02700
C767        C  0.04937869  0.99159741  0.49482785     0.09500
C768        C  0.04075005  0.93890372  0.45220413     0.35400
C769        C  0.14005132  0.96258712  0.55541422     0.38900
C770        C  0.05277862  0.00999701  0.45162991    -0.04700
C771        C  0.03412826  0.03039286  0.44353940     0.02500
C772        C  0.01252037  0.03417843  0.48113338    -0.04300
C773        C  0.00922713  0.01570802  0.52482852    -0.00500
C774        C  0.02736309  0.99448361  0.53113488    -0.03100
C775        C  0.07624860  0.00854111  0.41643297     0.36200
C776        C  0.98780689  0.01884750  0.56471696     0.39800
C777        C  0.03703754  0.04700236  0.39495977     0.38900
C778        C  0.02399782  0.97603361  0.57635215     0.35900
C779        C  0.09809409  0.00031726  0.55552285     0.36500
C780        C  0.08271318  0.90084265  0.45241146     0.39800
N781        N  0.03925761  0.06011535  0.35601297    -0.38300
N782        N  0.09521380  0.00771467  0.38903645    -0.39900
N783        N  0.97079780  0.02122053  0.59688437    -0.37600
N784        N  0.02146801  0.96126466  0.61243901    -0.40000
N785        N  0.02067975  0.93418824  0.43104555    -0.39800
N786        N  0.07971222  0.88086617  0.43079669    -0.37400
N787        N  0.16016577  0.96743881  0.57624984    -0.38500
N788        N  0.10110220  0.02041473  0.57660690    -0.40100
C789        C  0.54709265  0.94942369  0.53623863    -0.05100
C790        C  0.54947554  0.97105675  0.49992775     0.09100
C791        C  0.53168239  0.97309920  0.45506362    -0.02400
C792        C  0.51140499  0.95419995  0.44722027    -0.00700
C793        C  0.50758458  0.93343546  0.48593105    -0.04300
C794        C  0.52590103  0.93115747  0.53036439     0.02700
C795        C  0.57067097  0.99181192  0.50850900     0.09500
C796        C  0.53442720  0.99471750  0.41635508     0.35400
C797        C  0.52262999  0.91063354  0.57141166     0.38900
C798        C  0.59452039  0.99140625  0.47734266    -0.04700
C799        C  0.61353844  0.01187347  0.48218411     0.02500
C800        C  0.60901619  0.03331938  0.51859759    -0.04300
C801        C  0.58529766  0.03309366  0.55117178    -0.00500
C802        C  0.56623656  0.01272957  0.54556015    -0.03100
C803        C  0.59900781  0.97015613  0.43862498     0.36200
C804        C  0.58024968  0.05375047  0.59102889     0.39800
C805        C  0.63715525  0.01114760  0.44745947     0.38900
C806        C  0.54145604  0.01372822  0.57662393     0.35900
C807        C  0.56701044  0.94560534  0.57875866     0.36500
C808        C  0.49508860  0.95589348  0.39780846     0.39800
N809        N  0.65595292  0.01039607  0.41951752    -0.38300
N810        N  0.60232617  0.95321137  0.40762431    -0.39900
N811        N  0.57611669  0.07015001  0.62292413    -0.37600
N812        N  0.52166519  0.01450788  0.60138599    -0.40000
N813        N  0.53665176  0.01190804  0.38538825    -0.39800
N814        N  0.48217468  0.95714709  0.35824632    -0.37400
N815        N  0.52003505  0.89441340  0.60455654    -0.38500
N816        N  0.58322483  0.94235350  0.61199798    -0.40100
C817        C  0.34206297  0.95474797  0.52645327    -0.05100
C818        C  0.32136504  0.94715192  0.49079833     0.09100
C819        C  0.32748821  0.93469146  0.44008048    -0.02400
C820        C  0.35394869  0.92777415  0.42782437    -0.00700
C821        C  0.37383606  0.93062579  0.46882346    -0.04300
C822        C  0.36805969  0.94540752  0.51718219     0.02700
C823        C  0.29330018  0.94727523  0.51125021     0.09500
C824        C  0.30635780  0.92678854  0.40275031     0.35400
C825        C  0.38775352  0.94885909  0.56036223     0.38900
C826        C  0.27390459  0.96289573  0.48534350    -0.04700
C827        C  0.24675523  0.95690805  0.49290529     0.02500
C828        C  0.23920220  0.93554080  0.52669324    -0.04300
C829        C  0.25828039  0.92371858  0.56124867    -0.00500
C830        C  0.28546713  0.92883107  0.55205455    -0.03100
C831        C  0.28195345  0.98372077  0.44793413     0.36200
C832        C  0.25028294  0.90444075  0.60235152     0.39800
C833        C  0.22656446  0.97152728  0.46342395     0.38900
C834        C  0.30531138  0.91321018  0.58045443     0.35900
C835        C  0.33596856  0.97031076  0.57513066     0.36500
C836        C  0.36037972  0.91689216  0.37375444     0.39800
N837        N  0.21031469  0.98315911  0.44016403    -0.38300
N838        N  0.28835491  0.00032756  0.41803164    -0.39900
N839        N  0.24405280  0.88926388  0.63564170    -0.37600
N840        N  0.32123313  0.90074821  0.60276884    -0.40000
N841        N  0.28956326  0.92021916  0.37313995    -0.39800
N842        N  0.36559575  0.90836159  0.33058994    -0.37400
N843        N  0.40324596  0.95131332  0.59535509    -0.38500
N844        N  0.33097100  0.98278998  0.61379417    -0.40100
C845        C  0.46400400  0.61737351  0.08118000    -0.05100
C846        C  0.45151141  0.59566421  0.10633933     0.09100
C847        C  0.44154083  0.57534246  0.07269650    -0.02400
C848        C  0.44458258  0.57641221  0.01430102    -0.00700
C849        C  0.45789036  0.59782915  0.98885293    -0.04300
C850        C  0.46744383  0.61838981  0.02295903     0.02700
C851        C  0.45046550  0.59338438  0.16856140     0.09500
C852        C  0.42874231  0.55294446  0.09857185     0.35400
C853        C  0.48103828  0.64069712  0.99858067     0.38900
C854        C  0.42987495  0.60538791  0.19926696    -0.04700
C855        C  0.42860429  0.60242317  0.25758913     0.02500
C856        C  0.44836808  0.58803180  0.28601870    -0.04300
C857        C  0.46918463  0.57630055  0.25516198    -0.00500
C858        C  0.47026219  0.57909125  0.19677304    -0.03100
C859        C  0.41014430  0.62102896  0.17077275     0.36200
C860        C  0.48860409  0.55998678  0.28289012     0.39800
C861        C  0.40692382  0.61429924  0.28843484     0.38900
C862        C  0.49176912  0.56726175  0.16529148     0.35900
C863        C  0.47376743  0.63851797  0.11564872     0.36500
C864        C  0.43535695  0.55460767  0.98105879     0.39800
N865        N  0.38958110  0.62362005  0.31318281    -0.38300
N866        N  0.39454534  0.63371688  0.14809185    -0.39900
N867        N  0.50401721  0.54672126  0.30462824    -0.37600
N868        N  0.50884460  0.55800511  0.13963827    -0.40000
N869        N  0.41863924  0.53506316  0.11939838    -0.39800
N870        N  0.42807580  0.53710513  0.95475334    -0.37400
N871        N  0.49213160  0.65843916  0.97949501    -0.38500
N872        N  0.48143378  0.65536428  0.14334097    -0.40100
C873        C  0.54151185  0.49306246  0.85612412    -0.05100
C874        C  0.55819199  0.48831076  0.80986730     0.09100
C875        C  0.55383731  0.50251500  0.76048633    -0.02400
C876        C  0.53318922  0.52134369  0.75737823    -0.00700
C877        C  0.51731864  0.52727275  0.80466220    -0.04300
C878        C  0.52140701  0.51249258  0.85385000     0.02700
C879        C  0.58136999  0.46952126  0.81457371     0.09500
C880        C  0.57157259  0.49864604  0.71358114     0.35400
C881        C  0.50608106  0.51812678  0.90358332     0.38900
C882        C  0.57880782  0.44305522  0.79881685    -0.04700
C883        C  0.60032705  0.42532576  0.80543920     0.02500
C884        C  0.62501091  0.43385227  0.82783052    -0.04300
C885        C  0.62723504  0.46056247  0.84409284    -0.00500
C886        C  0.60578380  0.47817419  0.83664059    -0.03100
C887        C  0.55383385  0.43404694  0.77572694     0.36200
C888        C  0.65110894  0.47009921  0.87110188     0.39800
C889        C  0.59673289  0.39828083  0.78917037     0.38900
C890        C  0.60878689  0.50548401  0.85173049     0.35900
C891        C  0.54586572  0.47858198  0.90704538     0.36500
C892        C  0.52818698  0.53440541  0.70503180     0.39800
N893        N  0.59371772  0.37665870  0.77645331    -0.38300
N894        N  0.53391571  0.42685522  0.75723943    -0.39900
N895        N  0.66998900  0.47783279  0.89302296    -0.37600
N896        N  0.61113191  0.52730769  0.86344526    -0.40000
N897        N  0.58598394  0.49574309  0.67652897    -0.39800
N898        N  0.52402521  0.54471148  0.66316677    -0.37400
N899        N  0.49400440  0.52259592  0.94344134    -0.38500
N900        N  0.54947500  0.46703070  0.94765636    -0.40100
C901        C  0.44476103  0.87738190  0.08303272    -0.05100
C902        C  0.45793253  0.85926047  0.11734530     0.09100
C903        C  0.47447355  0.84020919  0.09319402    -0.02400
C904        C  0.47747210  0.83881930  0.03500206    -0.00700
C905        C  0.46365373  0.85654818  0.99953803    -0.04300
C906        C  0.44724470  0.87592318  0.02455060     0.02700
C907        C  0.45565392  0.86102265  0.17938341     0.09500
C908        C  0.48925137  0.82252488  0.12874676     0.35400
C909        C  0.43330252  0.89494671  0.99089546     0.38900
C910        C  0.43322607  0.85069011  0.20738189    -0.04700
C911        C  0.43103853  0.85290802  0.26566609     0.02500
C912        C  0.45182575  0.86447254  0.29669382    -0.04300
C913        C  0.47487944  0.87355164  0.26871502    -0.00500
C914        C  0.47635336  0.87259835  0.21023212    -0.03100
C915        C  0.41236358  0.83783388  0.17614791     0.36200
C916        C  0.49675230  0.88479823  0.29970534     0.39800
C917        C  0.40746959  0.84298305  0.29377542     0.38900
C918        C  0.49873762  0.88441727  0.18130193     0.35900
C919        C  0.42966449  0.89841773  0.10837938     0.36500
C920        C  0.49545258  0.81918316  0.01279007     0.39800
N921        N  0.38865793  0.83516694  0.31629544    -0.38300
N922        N  0.39570570  0.82748709  0.15142612    -0.39900
N923        N  0.51435737  0.89356986  0.32429490    -0.37600
N924        N  0.51635289  0.89402459  0.15774243    -0.40000
N925        N  0.50129001  0.80866584  0.15713367    -0.39800
N926        N  0.50999036  0.80361303  0.99563343    -0.37400
N927        N  0.42209474  0.91024626  0.96438356    -0.38500
N928        N  0.41796311  0.91533411  0.12885961    -0.40100
C929        C  0.58776889  0.99401411  0.88432769    -0.05100
C930        C  0.57811261  0.98767375  0.83109110     0.09100
C931        C  0.58730029  0.00230553  0.78508057    -0.02400
C932        C  0.60754622  0.02148628  0.79124563    -0.00700
C933        C  0.61884584  0.02649548  0.84401123    -0.04300
C934        C  0.60803688  0.01312580  0.89081770     0.02700
C935        C  0.55925075  0.96479087  0.82315937     0.09500
C936        C  0.57557687  0.99761520  0.73125201     0.35400
C937        C  0.61731819  0.01929512  0.94622423     0.38900
C938        C  0.53174244  0.96718714  0.83438461    -0.04700
C939        C  0.51448097  0.94523586  0.82989290     0.02500
C940        C  0.52446437  0.92047722  0.81325060    -0.04300
C941        C  0.55197968  0.91852119  0.79981462    -0.00500
C942        C  0.56912685  0.94043337  0.80482560    -0.03100
C943        C  0.52125074  0.99241824  0.85075584     0.36200
C944        C  0.56295526  0.89395097  0.78032021     0.39800
C945        C  0.48670170  0.94805147  0.84515250     0.38900
C946        C  0.59718525  0.93786407  0.79138010     0.35900
C947        C  0.57652564  0.98103206  0.93263284     0.36500
C948        C  0.61735907  0.03521450  0.74262581     0.39800
N949        N  0.46454611  0.95037264  0.85758663    -0.38300
N950        N  0.51302458  0.01264596  0.86362140    -0.39900
N951        N  0.57187166  0.87440716  0.76492962    -0.37600
N952        N  0.61954025  0.93581234  0.78039505    -0.40000
N953        N  0.56584763  0.99377893  0.68866767    -0.39800
N954        N  0.62514924  0.04615058  0.70369702    -0.37400
N955        N  0.62463744  0.02420526  0.99046364    -0.38500
N956        N  0.56722500  0.97094634  0.97117581    -0.40100
C957        C  0.51706603  0.73552782  0.82630833    -0.05100
C958        C  0.53695363  0.73181920  0.78558467     0.09100
C959        C  0.54817558  0.75348398  0.75809117    -0.02400
C960        C  0.53912224  0.77896538  0.77037932    -0.00700
C961        C  0.51847880  0.78279545  0.81014165    -0.04300
C962        C  0.50813453  0.76075815  0.83922830     0.02700
C963        C  0.54396903  0.70453067  0.77008925     0.09500
C964        C  0.56826759  0.74934617  0.71558374     0.35400
C965        C  0.48723189  0.76329684  0.88084466     0.38900
C966        C  0.53047563  0.69279054  0.72541811    -0.04700
C967        C  0.52507648  0.66580472  0.72692989     0.02500
C968        C  0.53141200  0.65139060  0.77516512    -0.04300
C969        C  0.54959442  0.66199703  0.81352811    -0.00500
C970        C  0.55650295  0.68864175  0.80997114    -0.03100
C971        C  0.51890773  0.70890515  0.68225542     0.36200
C972        C  0.55956342  0.64606958  0.85863173     0.39800
C973        C  0.51017455  0.65382347  0.68221809     0.38900
C974        C  0.57320152  0.70061663  0.85177856     0.35900
C975        C  0.50451232  0.71305715  0.85286357     0.36500
C976        C  0.55105489  0.80093396  0.74133722     0.39800
N977        N  0.49842365  0.64415300  0.64649112    -0.38300
N978        N  0.50947982  0.72170985  0.64797528    -0.39900
N979        N  0.56767400  0.63342811  0.89462341    -0.37600
N980        N  0.58645910  0.71038682  0.88499522    -0.40000
N981        N  0.58406227  0.74592820  0.68126434    -0.39800
N982        N  0.56072839  0.81824895  0.71764311    -0.37400
N983        N  0.47055609  0.76506251  0.91393054    -0.38500
N984        N  0.49439815  0.69519604  0.87374354    -0.40100
loop_ 
_geom_bond_atom_site_label_1 
_geom_bond_atom_site_label_2 
_geom_bond_distance 
_geom_bond_site_symmetry_2 
_ccdc_geom_bond_type 
In1           O3   2.219       .  S
In1           O4   2.286       .  S
In1          O12   2.252       .  S
In1           O6   2.307       .  S
In1           O8   2.250       .  S
In1           O9   2.319       .  S
In1          O10   2.196       .  S
In1          O13   2.276       .  S
C2            O8   1.265       .  A
C2           O10   1.260       .  A
C2          C961   1.493       .  S
O3           C11   1.256       .  A
O4           C11   1.267       .  A
C5           O12   1.256       .  A
C5            O6   1.266       .  A
C5          C940   1.513       .  S
C7            O9   1.262       .  A
C7           O13   1.258       .  A
C7          C150   1.496       .  S
C11         C905   1.511       .  S
In14         O16   2.326       .  S
In14         O17   2.275       .  S
In14         O25   2.298       .  S
In14         O19   2.270       .  S
In14         O21   2.227       .  S
In14         O22   2.270       .  S
In14         O23   2.234       .  S
In14         O26   2.247       .  S
C15          O21   1.262       .  A
C15          O23   1.265       .  A
C15         C968   1.479       .  S
O16          C24   1.266       .  A
O17          C24   1.255       .  A
C18          O25   1.261       .  A
C18          O19   1.255       .  A
C18         C877   1.512       .  S
C20          O22   1.265       .  A
C20          O26   1.261       .  A
C20         C849   1.501       .  S
C24         C115   1.497       .  S
In27         O29   2.236       .  S
In27         O30   2.275       .  S
In27         O38   2.309       .  S
In27         O32   2.236       .  S
In27         O34   2.238       .  S
In27         O35   2.304       .  S
In27         O36   2.218       .  S
In27         O39   2.265       .  S
C28          O34   1.262       .  A
C28          O36   1.262       .  A
C28         C821   1.488       .  S
O29          C37   1.257       .  A
O30          C37   1.264       .  A
C31          O38   1.269       .  A
C31          O32   1.257       .  A
C31         C793   1.515       .  S
C33          O35   1.261       .  A
C33          O39   1.256       .  A
C33         C145   1.486       .  S
C37         C912   1.490       .  S
In40         O42   2.280       .  S
In40         O43   2.325       .  S
In40         O51   2.257       .  S
In40         O45   2.324       .  S
In40         O47   2.259       .  S
In40         O48   2.298       .  S
In40         O49   2.202       .  S
In40         O52   2.233       .  S
C41          O47   1.265       .  A
C41          O49   1.259       .  A
C41         C828   1.476       .  S
O42          C50   1.257       .  A
O43          C50   1.268       .  A
C44          O51   1.255       .  A
C44          O45   1.267       .  A
C44         C765   1.507       .  S
C46          O48   1.266       .  A
C46          O52   1.254       .  A
C46         C737   1.515       .  S
C50         C141   1.501       .  S
In53         O55   2.280       .  S
In53         O56   2.315       .  S
In53         O64   2.296       .  S
In53         O58   2.262       .  S
In53         O60   2.243       .  S
In53         O61   2.293       .  S
In53         O62   2.229       .  S
In53         O65   2.253       .  S
C54          O60   1.264       .  A
C54          O62   1.261       .  A
C54         C716   1.490       .  S
O55          C63   1.255       .  A
O56          C63   1.263       .  A
C57          O64   1.265       .  A
C57          O58   1.259       .  A
C57         C688   1.524       .  S
C59          O61   1.262       .  A
C59          O65   1.254       .  A
C59         C856   1.494       .  S
C63         C106   1.494       .  S
In66         O68   2.239       .  S
In66         O69   2.279       .  S
In66         O77   2.311       .  S
In66         O71   2.236       .  S
In66         O73   2.255       .  S
In66         O74   2.303       .  S
In66         O75   2.213       .  S
In66         O78   2.268       .  S
C67          O73   1.265       .  A
C67          O75   1.263       .  A
C67         C709   1.479       .  S
O68          C76   1.257       .  A
O69          C76   1.264       .  A
C70          O77   1.268       .  A
C70          O71   1.256       .  A
C70         C653   1.506       .  S
C72          O74   1.268       .  A
C72          O78   1.258       .  A
C72         C124   1.491       .  S
C76         C625   1.514       .  S
In79         O81   2.270       .  S
In79         O82   2.327       .  S
In79         O90   2.300       .  S
In79         O84   2.242       .  S
In79         O86   2.246       .  S
In79         O87   2.281       .  S
In79         O88   2.203       .  S
In79         O91   2.269       .  S
C80          O86   1.263       .  A
C80          O88   1.264       .  A
C80         C604   1.480       .  S
O81          C89   1.255       .  A
O82          C89   1.268       .  A
C83          O90   1.271       .  A
C83          O84   1.258       .  A
C83         C569   1.507       .  S
C85          O87   1.261       .  A
C85          O91   1.257       .  A
C85         C744   1.496   1_556  S
C89         C132   1.499       .  S
In92         O94   2.256       .  S
In92         O95   2.298       .  S
In92        O103   2.324       .  S
In92         O97   2.270       .  S
In92         O99   2.245       .  S
In92        O100   2.267       .  S
In92        O101   2.221       .  S
In92        O104   2.324       .  S
C93          O99   1.263       .  A
C93         O101   1.262       .  A
C93         C597   1.483       .  S
O94         C102   1.258       .  A
O95         C102   1.265       .  A
C96         O103   1.267       .  A
C96          O97   1.258       .  A
C96         C541   1.523       .  S
C98         O100   1.257       .  A
C98         O104   1.264       .  A
C98         C119   1.495       .  S
C102        C632   1.498   1_556  S
In105       O107   2.313       .  S
In105       O108   2.276       .  S
In105       O116   2.300       .  S
In105       O110   2.315       .  S
In105       O112   2.309       .  S
In105       O113   2.315       .  S
In105       O114   2.286       .  S
In105       O117   2.290       .  S
C106        O112   1.260       .  A
C106        O114   1.261       .  A
O107        C115   1.264       .  A
O108        C115   1.262       .  A
C109        O116   1.260       .  A
C109        O110   1.265       .  A
C109        C148   1.505       .  S
C111        O113   1.266       .  A
C111        O117   1.261       .  A
C111        C122   1.503       .  S
In118       O120   2.320       .  S
In118       O121   2.319       .  S
In118       O129   2.292       .  S
In118       O123   2.304       .  S
In118       O125   2.327       .  S
In118       O126   2.293       .  S
In118       O127   2.269       .  S
In118       O130   2.283       .  S
C119        O125   1.264       .  A
C119        O127   1.258       .  A
O120        C128   1.263       .  A
O121        C128   1.261       .  A
C122        O129   1.265       .  A
C122        O123   1.265       .  A
C124        O126   1.260       .  A
C124        O130   1.263       .  A
C128        C137   1.510       .  S
In131       O133   2.290       .  S
In131       O134   2.316       .  S
In131       O142   2.303       .  S
In131       O136   2.314       .  S
In131       O138   2.315       .  S
In131       O139   2.321       .  S
In131       O140   2.282       .  S
In131       O143   2.307       .  S
C132        O138   1.262       .  A
C132        O140   1.263       .  A
O133        C141   1.263       .  A
O134        C141   1.262       .  A
C135        O142   1.262       .  A
C135        O136   1.264       .  A
C135        C154   1.506       .  S
C137        O139   1.266       .  A
C137        O143   1.261       .  A
In144       O146   2.308       .  S
In144       O147   2.312       .  S
In144       O155   2.310       .  S
In144       O149   2.307       .  S
In144       O151   2.294       .  S
In144       O152   2.314       .  S
In144       O153   2.261       .  S
In144       O156   2.273       .  S
C145        O151   1.263       .  A
C145        O153   1.261       .  A
O146        C154   1.263       .  A
O147        C154   1.263       .  A
C148        O155   1.264       .  A
C148        O149   1.261       .  A
C150        O152   1.265       .  A
C150        O156   1.260       .  A
In157       O159   2.273       .  S
In157       O160   2.317       .  S
In157       O168   2.269       .  S
In157       O162   2.320       .  S
In157       O164   2.253       .  S
In157       O165   2.291       .  S
In157       O166   2.235       .  S
In157       O169   2.258       .  S
C158        O164   1.262       .  A
C158        O166   1.261       .  A
C158        C513   1.490       .  S
O159        C167   1.258       .  A
O160        C167   1.268       .  A
C161        O168   1.258       .  A
C161        O162   1.266       .  A
C161        C548   1.521   1_655  S
C163        O165   1.266       .  A
C163        O169   1.258       .  A
C163        C485   1.509       .  S
C167        C310   1.497       .  S
In170       O172   2.285       .  S
In170       O173   2.254       .  S
In170       O181   2.293       .  S
In170       O175   2.256       .  S
In170       O177   2.253       .  S
In170       O178   2.302       .  S
In170       O179   2.214       .  S
In170       O182   2.272       .  S
C171        O177   1.264       .  A
C171        O179   1.263       .  A
C171        C520   1.483       .  S
O172        C180   1.265       .  A
O173        C180   1.258       .  A
C174        O181   1.266       .  A
C174        O175   1.260       .  A
C174        C884   1.519       .  S
C176        O178   1.266       .  A
C176        O182   1.257       .  A
C176        C267   1.492       .  S
C180        C464   1.510   1_556  S
In183       O185   2.278       .  S
In183       O186   2.318       .  S
In183       O194   2.316       .  S
In183       O188   2.250   1_655  S
In183       O190   2.256       .  S
In183       O191   2.295       .  S
In183       O192   2.226       .  S
In183       O195   2.250       .  S
C184        O190   1.264   1_455  A
C184        O192   1.260   1_455  A
C184        C429   1.482       .  S
O185        C193   1.257       .  A
O186        C193   1.266       .  A
C187        O194   1.266       .  A
C187        O188   1.257   1_655  A
C187        C660   1.511   1_655  S
C189        O191   1.264       .  A
C189        O195   1.255       .  A
C189        C492   1.498       .  S
C193        C301   1.497       .  S
In196       O198   2.258       .  S
In196       O199   2.287       .  S
In196       O207   2.327       .  S
In196       O201   2.245   1_655  S
In196       O203   2.249   1_655  S
In196       O204   2.333       .  S
In196       O205   2.227       .  S
In196       O208   2.277       .  S
C197        O203   1.261   1_655  A
C197        O205   1.263       .  A
C197        C436   1.490   1_655  S
O198        C206   1.259       .  A
O199        C206   1.267       .  A
C200        O207   1.268       .  A
C200        O201   1.257   1_655  A
C200        C772   1.521   1_655  S
C202        O204   1.262       .  A
C202        O208   1.258       .  A
C202        C293   1.500       .  S
C206        C408   1.507       .  S
In209       O211   2.249       .  S
In209       O212   2.274       .  S
In209       O220   2.252       .  S
In209       O214   2.306       .  S
In209       O216   2.230       .  S
In209       O217   2.316       .  S
In209       O218   2.218       .  S
In209       O221   2.279       .  S
C210        O216   1.264       .  A
C210        O218   1.266       .  A
C210        C373   1.475       .  S
O211        C219   1.259       .  A
O212        C219   1.265       .  A
C213        O220   1.256       .  A
C213        O214   1.266       .  A
C213        C681   1.504       .  S
C215        O217   1.268       .  A
C215        O221   1.258       .  A
C215        C262   1.500       .  S
C219        C457   1.500       .  S
In222       O224   2.267       .  S
In222       O225   2.318       .  S
In222       O233   2.299       .  S
In222       O227   2.271       .  S
In222       O229   2.254       .  S
In222       O230   2.290       .  S
In222       O231   2.206       .  S
In222       O234   2.235       .  S
C223        O229   1.265       .  A
C223        O231   1.261       .  A
C223        C380   1.480       .  S
O224        C232   1.256       .  A
O225        C232   1.267       .  A
C226        O233   1.264       .  A
C226        O227   1.258       .  A
C226        C800   1.519       .  S
C228        O230   1.266       .  A
C228        O234   1.257       .  A
C228        C352   1.501       .  S
C232        C284   1.493       .  S
In235       O237   2.257       .  S
In235       O238   2.276       .  S
In235       O246   2.241       .  S
In235       O240   2.313       .  S
In235       O242   2.253       .  S
In235       O243   2.322       .  S
In235       O244   2.204       .  S
In235       O247   2.268       .  S
C236        O242   1.265       .  A
C236        O244   1.262       .  A
C236        C317   1.473       .  S
O237        C245   1.258       .  A
O238        C245   1.264       .  A
C239        O246   1.257       .  A
C239        O240   1.269       .  A
C239        C576   1.513   1_655  S
C241        O243   1.268       .  A
C241        O247   1.256       .  A
C241        C288   1.495       .  S
C245        C401   1.506       .  S
In248       O250   2.273       .  S
In248       O251   2.335       .  S
In248       O259   2.309       .  S
In248       O253   2.258       .  S
In248       O255   2.272       .  S
In248       O256   2.302       .  S
In248       O257   2.202       .  S
In248       O260   2.244       .  S
C249        O255   1.265       .  A
C249        O257   1.258       .  A
C249        C324   1.495       .  S
O250        C258   1.255       .  A
O251        C258   1.268       .  A
C252        O259   1.266       .  A
C252        O253   1.256       .  A
C252        C933   1.513       .  S
C254        O256   1.266       .  A
C254        O260   1.255       .  A
C254        C345   1.509   1_556  S
C258        C275   1.501       .  S
In261       O263   2.301       .  S
In261       O264   2.328       .  S
In261       O272   2.296       .  S
In261       O266   2.322       .  S
In261       O268   2.309       .  S
In261       O269   2.295       .  S
In261       O270   2.290       .  S
In261       O273   2.287       .  S
C262        O268   1.262       .  A
C262        O270   1.264       .  A
O263        C271   1.260       .  A
O264        C271   1.262       .  A
C265        O272   1.260       .  A
C265        O266   1.262       .  A
C265        C304   1.503       .  S
C267        O269   1.259       .  A
C267        O273   1.263       .  A
C271        C278   1.506       .  S
In274       O276   2.281       .  S
In274       O277   2.309       .  S
In274       O285   2.291       .  S
In274       O279   2.326       .  S
In274       O281   2.318       .  S
In274       O282   2.319       .  S
In274       O283   2.276       .  S
In274       O286   2.302       .  S
C275        O281   1.265       .  A
C275        O283   1.263       .  A
O276        C284   1.262       .  A
O277        C284   1.260       .  A
C278        O285   1.260       .  A
C278        O279   1.266       .  A
C280        O282   1.263       .  A
C280        O286   1.261       .  A
C280        C297   1.506       .  S
In287       O289   2.313       .  S
In287       O290   2.292       .  S
In287       O298   2.310       .  S
In287       O292   2.323       .  S
In287       O294   2.309       .  S
In287       O295   2.270       .  S
In287       O296   2.273       .  S
In287       O299   2.333       .  S
C288        O294   1.263       .  A
C288        O296   1.263       .  A
O289        C297   1.267       .  A
O290        C297   1.264       .  A
C291        O298   1.261       .  A
C291        O292   1.262       .  A
C291        C306   1.507       .  S
C293        O295   1.258       .  A
C293        O299   1.266       .  A
In300       O302   2.283       .  S
In300       O303   2.312       .  S
In300       O311   2.292       .  S
In300       O305   2.323       .  S
In300       O307   2.311       .  S
In300       O308   2.322       .  S
In300       O309   2.282       .  S
In300       O312   2.299       .  S
C301        O307   1.262       .  A
C301        O309   1.262       .  A
O302        C310   1.262       .  A
O303        C310   1.262       .  A
C304        O311   1.259       .  A
C304        O305   1.264       .  A
C306        O308   1.265       .  A
C306        O312   1.260       .  A
C313        C314   1.412       .  A
C313        C318   1.408       .  A
C313        C331   1.452       .  S
C314        C319   1.491       .  S
C314        C315   1.411   1_545  A
C315        C316   1.408       .  A
C315        C320   1.449       .  S
C316        C317   1.410   1_565  A
C316        C332   1.451       .  S
C317        C318   1.411       .  A
C318        C321   1.451       .  S
C319        C322   1.408       .  A
C319        C326   1.409       .  A
C320        N337   1.157       .  T
C321        N339   1.157       .  T
C322        C323   1.416       .  A
C322        C327   1.449   1_545  S
C323        C324   1.420       .  A
C323        C329   1.450       .  S
C324        C325   1.421       .  A
C325        C326   1.402       .  A
C325        C328   1.452       .  S
C326        C330   1.455       .  S
C327        N334   1.158       .  T
C328        N335   1.158       .  T
C329        N333   1.157       .  T
C330        N336   1.157       .  T
C331        N340   1.157       .  T
C332        N338   1.157       .  T
C341        C342   1.414       .  A
C341        C346   1.420       .  A
C341        C359   1.450       .  S
C342        C347   1.511       .  S
C342        C343   1.409       .  A
C343        C344   1.415       .  A
C343        C348   1.453       .  S
C344        C345   1.425       .  A
C344        C360   1.451       .  S
C345        C346   1.418       .  A
C346        C349   1.450       .  S
C347        C350   1.410       .  A
C347        C354   1.415       .  A
C348        N365   1.157       .  T
C349        N367   1.157   1_554  T
C350        C351   1.413       .  A
C350        C355   1.451       .  S
C351        C352   1.420       .  A
C351        C357   1.451       .  S
C352        C353   1.416       .  A
C353        C354   1.419       .  A
C353        C356   1.451       .  S
C354        C358   1.449       .  S
C355        N362   1.157       .  T
C356        N363   1.157       .  T
C357        N361   1.158       .  T
C358        N364   1.158       .  T
C359        N368   1.158       .  T
C360        N366   1.158       .  T
C369        C370   1.410       .  A
C369        C374   1.408       .  A
C369        C387   1.447       .  S
C370        C375   1.488       .  S
C370        C371   1.408       .  A
C371        C372   1.406       .  A
C371        C376   1.452       .  S
C372        C373   1.412       .  A
C372        C388   1.446       .  S
C373        C374   1.408       .  A
C374        C377   1.451       .  S
C375        C378   1.412       .  A
C375        C382   1.409       .  A
C376        N393   1.156       .  T
C377        N395   1.156       .  T
C378        C379   1.401       .  A
C378        C383   1.455       .  S
C379        C380   1.416       .  A
C379        C385   1.455       .  S
C380        C381   1.414       .  A
C381        C382   1.414       .  A
C381        C384   1.449       .  S
C382        C386   1.449       .  S
C383        N390   1.157       .  T
C384        N391   1.157       .  T
C385        N389   1.158       .  T
C386        N392   1.157       .  T
C387        N396   1.158       .  T
C388        N394   1.157       .  T
C397        C398   1.411       .  A
C397        C402   1.418       .  A
C397        C415   1.450       .  S
C398        C403   1.511       .  S
C398        C399   1.412       .  A
C399        C400   1.417       .  A
C399        C404   1.450       .  S
C400        C401   1.419   1_554  A
C400        C416   1.451   1_554  S
C401        C402   1.421   1_556  A
C402        C405   1.451       .  S
C403        C406   1.412       .  A
C403        C410   1.411       .  A
C404        N421   1.157   1_655  T
C405        N423   1.157   1_554  T
C406        C407   1.419       .  A
C406        C411   1.449       .  S
C407        C408   1.419       .  A
C407        C413   1.450       .  S
C408        C409   1.420       .  A
C409        C410   1.417       .  A
C409        C412   1.450       .  S
C410        C414   1.451       .  S
C411        N418   1.157       .  T
C412        N419   1.157       .  T
C413        N417   1.157       .  T
C414        N420   1.157       .  T
C415        N424   1.158       .  T
C416        N422   1.158   1_655  T
C425        C426   1.416       .  A
C425        C430   1.407       .  A
C425        C443   1.452   1_455  S
C426        C431   1.498       .  S
C426        C427   1.411       .  A
C427        C428   1.412       .  A
C427        C432   1.450       .  S
C428        C429   1.412       .  A
C428        C444   1.448       .  S
C429        C430   1.410       .  A
C430        C433   1.450   1_455  S
C431        C434   1.414       .  A
C431        C438   1.411       .  A
C432        N449   1.157       .  T
C433        N451   1.156       .  T
C434        C435   1.407       .  A
C434        C439   1.451       .  S
C435        C436   1.413       .  A
C435        C441   1.452       .  S
C436        C437   1.418       .  A
C437        C438   1.412       .  A
C437        C440   1.450       .  S
C438        C442   1.451       .  S
C439        N446   1.158       .  T
C440        N447   1.158       .  T
C441        N445   1.157       .  T
C442        N448   1.157       .  T
C443        N452   1.158       .  T
C444        N450   1.158       .  T
C453        C454   1.411       .  A
C453        C458   1.416       .  A
C453        C471   1.450       .  S
C454        C459   1.508       .  S
C454        C455   1.412       .  A
C455        C456   1.415       .  A
C455        C460   1.450       .  S
C456        C457   1.415       .  A
C456        C472   1.450       .  S
C457        C458   1.420       .  A
C458        C461   1.452       .  S
C459        C462   1.410       .  A
C459        C466   1.410       .  A
C460        N477   1.157       .  T
C461        N479   1.158       .  T
C462        C463   1.417       .  A
C462        C467   1.451       .  S
C463        C464   1.425       .  A
C463        C469   1.451       .  S
C464        C465   1.419       .  A
C465        C466   1.416       .  A
C465        C468   1.449       .  S
C466        C470   1.450       .  S
C467        N474   1.158       .  T
C468        N475   1.157   1_554  T
C469        N473   1.158       .  T
C470        N476   1.157       .  T
C471        N480   1.157       .  T
C472        N478   1.157       .  T
C481        C482   1.412       .  A
C481        C486   1.419       .  A
C481        C499   1.450       .  S
C482        C487   1.510       .  S
C482        C483   1.410       .  A
C483        C484   1.417       .  A
C483        C488   1.451       .  S
C484        C485   1.422   1_554  A
C484        C500   1.451       .  S
C485        C486   1.419   1_556  A
C486        C489   1.450   1_554  S
C487        C490   1.414       .  A
C487        C494   1.412       .  A
C488        N505   1.157       .  T
C489        N507   1.157   1_655  T
C490        C491   1.417       .  A
C490        C495   1.450       .  S
C491        C492   1.415       .  A
C491        C497   1.450       .  S
C492        C493   1.417       .  A
C493        C494   1.417       .  A
C493        C496   1.451       .  S
C494        C498   1.449       .  S
C495        N502   1.157       .  T
C496        N503   1.157       .  T
C497        N501   1.157       .  T
C498        N504   1.157       .  T
C499        N508   1.157   1_655  T
C500        N506   1.157   1_554  T
C509        C510   1.407       .  A
C509        C514   1.411       .  A
C509        C527   1.449       .  S
C510        C515   1.491       .  S
C510        C511   1.407       .  A
C511        C512   1.409       .  A
C511        C516   1.449       .  S
C512        C513   1.414       .  A
C512        C528   1.449       .  S
C513        C514   1.417       .  A
C514        C517   1.450       .  S
C515        C518   1.412       .  A
C515        C522   1.409       .  A
C516        N533   1.157       .  T
C517        N535   1.157       .  T
C518        C519   1.404       .  A
C518        C523   1.454       .  S
C519        C520   1.414       .  A
C519        C525   1.454       .  S
C520        C521   1.415       .  A
C521        C522   1.415       .  A
C521        C524   1.449       .  S
C522        C526   1.448       .  S
C523        N530   1.158       .  T
C524        N531   1.157       .  T
C525        N529   1.157       .  T
C526        N532   1.157       .  T
C527        N536   1.157       .  T
C528        N534   1.158       .  T
C537        C538   1.412       .  A
C537        C542   1.420       .  A
C537        C555   1.451       .  S
C538        C543   1.525       .  S
C538        C539   1.416       .  A
C539        C540   1.428       .  A
C539        C544   1.448       .  S
C540        C541   1.421       .  A
C540        C556   1.449       .  S
C541        C542   1.423       .  A
C542        C545   1.450       .  S
C543        C546   1.416       .  A
C543        C550   1.412       .  A
C544        N561   1.157       .  T
C545        N563   1.157       .  T
C546        C547   1.428       .  A
C546        C551   1.448       .  S
C547        C548   1.422       .  A
C547        C553   1.450       .  S
C548        C549   1.422       .  A
C549        C550   1.419       .  A
C549        C552   1.450       .  S
C550        C554   1.451       .  S
C551        N558   1.157       .  T
C552        N559   1.157       .  T
C553        N557   1.157       .  T
C554        N560   1.157       .  T
C555        N564   1.157       .  T
C556        N562   1.158       .  T
C565        C566   1.413       .  A
C565        C570   1.421       .  A
C565        C583   1.449       .  S
C566        C571   1.515       .  S
C566        C567   1.412       .  A
C567        C568   1.417       .  A
C567        C572   1.451       .  S
C568        C569   1.421       .  A
C568        C584   1.452       .  S
C569        C570   1.417       .  A
C570        C573   1.449       .  S
C571        C574   1.412       .  A
C571        C578   1.411       .  A
C572        N589   1.157       .  T
C573        N591   1.157       .  T
C574        C575   1.422   1_565  A
C574        C579   1.448       .  S
C575        C576   1.419       .  A
C575        C581   1.448       .  S
C576        C577   1.424       .  A
C577        C578   1.417   1_545  A
C577        C580   1.452   1_455  S
C578        C582   1.451       .  S
C579        N586   1.156       .  T
C580        N587   1.157       .  T
C581        N585   1.158       .  T
C582        N588   1.158       .  T
C583        N592   1.157   1_565  T
C584        N590   1.158       .  T
C593        C594   1.413       .  A
C593        C598   1.402       .  A
C593        C611   1.455       .  S
C594        C599   1.489       .  S
C594        C595   1.409       .  A
C595        C596   1.412       .  A
C595        C600   1.450       .  S
C596        C597   1.416       .  A
C596        C612   1.450       .  S
C597        C598   1.416       .  A
C598        C601   1.454       .  S
C599        C602   1.410       .  A
C599        C606   1.409       .  A
C600        N617   1.157       .  T
C601        N619   1.158       .  T
C602        C603   1.409       .  A
C602        C607   1.450       .  S
C603        C604   1.416       .  A
C603        C609   1.451       .  S
C604        C605   1.411       .  A
C605        C606   1.404       .  A
C605        C608   1.451       .  S
C606        C610   1.450       .  S
C607        N614   1.157       .  T
C608        N615   1.157       .  T
C609        N613   1.158       .  T
C610        N616   1.157       .  T
C611        N620   1.157       .  T
C612        N618   1.157       .  T
C621        C622   1.412       .  A
C621        C626   1.417       .  A
C621        C639   1.451       .  S
C622        C627   1.511       .  S
C622        C623   1.409       .  A
C623        C624   1.416       .  A
C623        C628   1.451       .  S
C624        C625   1.427       .  A
C624        C640   1.452       .  S
C625        C626   1.423       .  A
C626        C629   1.451       .  S
C627        C630   1.415       .  A
C627        C634   1.412       .  A
C628        N645   1.157       .  T
C629        N647   1.157       .  T
C630        C631   1.420       .  A
C630        C635   1.451       .  S
C631        C632   1.416       .  A
C631        C637   1.449       .  S
C632        C633   1.414       .  A
C633        C634   1.414       .  A
C633        C636   1.451       .  S
C634        C638   1.449       .  S
C635        N642   1.158       .  T
C636        N643   1.157   1_554  T
C637        N641   1.157   1_554  T
C638        N644   1.157       .  T
C639        N648   1.157       .  T
C640        N646   1.158       .  T
C649        C650   1.412       .  A
C649        C654   1.415       .  A
C649        C667   1.451       .  S
C650        C655   1.517       .  S
C650        C651   1.416       .  A
C651        C652   1.423       .  A
C651        C656   1.449       .  S
C652        C653   1.416       .  A
C652        C668   1.449       .  S
C653        C654   1.419       .  A
C654        C657   1.452       .  S
C655        C658   1.415       .  A
C655        C662   1.412       .  A
C656        N673   1.157       .  T
C657        N675   1.157       .  T
C658        C659   1.424       .  A
C658        C663   1.448       .  S
C659        C660   1.419       .  A
C659        C665   1.449   1_455  S
C660        C661   1.420       .  A
C661        C662   1.416       .  A
C661        C664   1.451       .  S
C662        C666   1.451       .  S
C663        N670   1.157       .  T
C664        N671   1.157       .  T
C665        N669   1.157       .  T
C666        N672   1.157       .  T
C667        N676   1.157       .  T
C668        N674   1.157       .  T
C677        C678   1.416       .  A
C677        C682   1.422       .  A
C677        C695   1.450       .  S
C678        C683   1.519       .  S
C678        C679   1.413       .  A
C679        C680   1.417       .  A
C679        C684   1.449       .  S
C680        C681   1.417       .  A
C680        C696   1.450       .  S
C681        C682   1.417       .  A
C682        C685   1.451       .  S
C683        C686   1.411       .  A
C683        C690   1.412       .  A
C684        N701   1.157       .  T
C685        N703   1.158       .  T
C686        C687   1.418       .  A
C686        C691   1.452       .  S
C687        C688   1.427       .  A
C687        C693   1.451       .  S
C688        C689   1.425       .  A
C689        C690   1.423       .  A
C689        C692   1.449       .  S
C690        C694   1.450       .  S
C691        N698   1.157       .  T
C692        N699   1.158       .  T
C693        N697   1.158       .  T
C694        N700   1.157       .  T
C695        N704   1.157       .  T
C696        N702   1.157       .  T
C705        C706   1.409       .  A
C705        C710   1.408       .  A
C705        C723   1.449       .  S
C706        C711   1.496       .  S
C706        C707   1.413       .  A
C707        C708   1.411       .  A
C707        C712   1.449       .  S
C708        C709   1.411       .  A
C708        C724   1.451       .  S
C709        C710   1.411       .  A
C710        C713   1.449       .  S
C711        C714   1.416       .  A
C711        C718   1.409       .  A
C712        N729   1.158       .  T
C713        N731   1.158       .  T
C714        C715   1.407       .  A
C714        C719   1.455       .  S
C715        C716   1.417       .  A
C715        C721   1.454       .  S
C716        C717   1.417       .  A
C717        C718   1.413       .  A
C717        C720   1.450       .  S
C718        C722   1.449       .  S
C719        N726   1.158       .  T
C720        N727   1.158       .  T
C721        N725   1.157       .  T
C722        N728   1.157       .  T
C723        N732   1.157       .  T
C724        N730   1.157       .  T
C733        C734   1.408       .  A
C733        C738   1.415       .  A
C733        C751   1.452       .  S
C734        C739   1.509       .  S
C734        C735   1.411       .  A
C735        C736   1.419       .  A
C735        C740   1.450       .  S
C736        C737   1.422       .  A
C736        C752   1.449       .  S
C737        C738   1.429       .  A
C738        C741   1.453       .  S
C739        C742   1.413       .  A
C739        C746   1.412       .  A
C740        N757   1.157       .  T
C741        N759   1.158       .  T
C742        C743   1.418       .  A
C742        C747   1.449       .  S
C743        C744   1.414       .  A
C743        C749   1.449       .  S
C744        C745   1.416       .  A
C745        C746   1.416       .  A
C745        C748   1.451       .  S
C746        C750   1.450       .  S
C747        N754   1.157       .  T
C748        N755   1.157   1_554  T
C749        N753   1.157   1_554  T
C750        N756   1.157       .  T
C751        N760   1.157       .  T
C752        N758   1.157       .  T
C761        C762   1.413       .  A
C761        C766   1.419       .  A
C761        C779   1.449   1_565  S
C762        C767   1.522       .  S
C762        C763   1.417       .  A
C763        C764   1.424       .  A
C763        C768   1.449       .  S
C764        C765   1.415       .  A
C764        C780   1.449       .  S
C765        C766   1.417       .  A
C766        C769   1.450       .  S
C767        C770   1.412   1_565  A
C767        C774   1.415       .  A
C768        N785   1.157       .  T
C769        N787   1.157       .  T
C770        C771   1.417       .  A
C770        C775   1.451       .  S
C771        C772   1.424       .  A
C771        C777   1.452       .  S
C772        C773   1.422       .  A
C773        C774   1.427   1_545  A
C773        C776   1.449   1_455  S
C774        C778   1.449       .  S
C775        N782   1.157       .  T
C776        N783   1.158       .  T
C777        N781   1.157       .  T
C778        N784   1.157       .  T
C779        N788   1.157       .  T
C780        N786   1.157       .  T
C789        C790   1.414       .  A
C789        C794   1.423       .  A
C789        C807   1.449       .  S
C790        C795   1.517       .  S
C790        C791   1.410       .  A
C791        C792   1.416       .  A
C791        C796   1.451       .  S
C792        C793   1.424       .  A
C792        C808   1.452       .  S
C793        C794   1.420       .  A
C794        C797   1.450       .  S
C795        C798   1.411       .  A
C795        C802   1.412   1_565  A
C796        N813   1.157   1_565  T
C797        N815   1.157       .  T
C798        C799   1.421   1_565  A
C798        C803   1.451       .  S
C799        C800   1.424       .  A
C799        C805   1.449       .  S
C800        C801   1.424       .  A
C801        C802   1.420       .  A
C801        C804   1.451       .  S
C802        C806   1.450       .  S
C803        N810   1.157       .  T
C804        N811   1.157       .  T
C805        N809   1.158       .  T
C806        N812   1.158       .  T
C807        N816   1.157       .  T
C808        N814   1.158       .  T
C817        C818   1.407       .  A
C817        C822   1.408       .  A
C817        C835   1.450       .  S
C818        C823   1.491       .  S
C818        C819   1.412       .  A
C819        C820   1.406       .  A
C819        C824   1.452       .  S
C820        C821   1.416       .  A
C820        C836   1.453       .  S
C821        C822   1.419       .  A
C822        C825   1.450       .  S
C823        C826   1.409       .  A
C823        C830   1.415       .  A
C824        N841   1.157       .  T
C825        N843   1.157       .  T
C826        C827   1.408       .  A
C826        C831   1.450       .  S
C827        C828   1.412       .  A
C827        C833   1.450       .  S
C828        C829   1.409       .  A
C829        C830   1.406       .  A
C829        C832   1.451       .  S
C830        C834   1.452       .  S
C831        N838   1.157   1_565  T
C832        N839   1.157       .  T
C833        N837   1.158       .  T
C834        N840   1.158       .  T
C835        N844   1.157       .  T
C836        N842   1.158       .  T
C845        C846   1.409       .  A
C845        C850   1.414       .  A
C845        C863   1.451       .  S
C846        C851   1.505       .  S
C846        C847   1.412       .  A
C847        C848   1.416       .  A
C847        C852   1.451       .  S
C848        C849   1.419   1_554  A
C848        C864   1.451   1_554  S
C849        C850   1.420   1_556  A
C850        C853   1.450   1_554  S
C851        C854   1.411       .  A
C851        C858   1.412       .  A
C852        N869   1.157       .  T
C853        N871   1.157       .  T
C854        C855   1.415       .  A
C854        C859   1.450       .  S
C855        C856   1.416       .  A
C855        C861   1.450       .  S
C856        C857   1.415       .  A
C857        C858   1.415       .  A
C857        C860   1.450       .  S
C858        C862   1.451       .  S
C859        N866   1.157       .  T
C860        N867   1.157       .  T
C861        N865   1.157       .  T
C862        N868   1.157       .  T
C863        N872   1.157       .  T
C864        N870   1.157       .  T
C873        C874   1.413       .  A
C873        C878   1.420       .  A
C873        C891   1.450       .  S
C874        C879   1.516       .  S
C874        C875   1.412       .  A
C875        C876   1.419       .  A
C875        C880   1.450       .  S
C876        C877   1.421       .  A
C876        C892   1.450       .  S
C877        C878   1.421       .  A
C878        C881   1.451       .  S
C879        C882   1.412       .  A
C879        C886   1.410       .  A
C880        N897   1.157       .  T
C881        N899   1.157       .  T
C882        C883   1.422       .  A
C882        C887   1.450       .  S
C883        C884   1.423       .  A
C883        C889   1.449       .  S
C884        C885   1.426       .  A
C885        C886   1.418       .  A
C885        C888   1.451       .  S
C886        C890   1.451       .  S
C887        N894   1.157       .  T
C888        N895   1.157       .  T
C889        N893   1.158       .  T
C890        N896   1.157       .  T
C891        N900   1.158       .  T
C892        N898   1.158       .  T
C901        C902   1.409       .  A
C901        C906   1.416       .  A
C901        C919   1.451       .  S
C902        C907   1.502       .  S
C902        C903   1.407       .  A
C903        C904   1.412       .  A
C903        C908   1.453       .  S
C904        C905   1.428   1_554  A
C904        C920   1.453       .  S
C905        C906   1.423   1_556  A
C906        C909   1.449   1_554  S
C907        C910   1.412       .  A
C907        C914   1.411       .  A
C908        N925   1.158       .  T
C909        N927   1.158       .  T
C910        C911   1.413       .  A
C910        C915   1.451       .  S
C911        C912   1.416       .  A
C911        C917   1.451       .  S
C912        C913   1.414       .  A
C913        C914   1.412       .  A
C913        C916   1.450       .  S
C914        C918   1.450       .  S
C915        N922   1.157       .  T
C916        N923   1.157       .  T
C917        N921   1.158       .  T
C918        N924   1.157       .  T
C919        N928   1.157       .  T
C920        N926   1.157   1_554  T
C929        C930   1.412       .  A
C929        C934   1.419   1_565  A
C929        C947   1.451       .  S
C930        C935   1.517       .  S
C930        C931   1.412   1_565  A
C931        C932   1.420       .  A
C931        C936   1.448   1_545  S
C932        C933   1.419       .  A
C932        C948   1.449       .  S
C933        C934   1.423       .  A
C934        C937   1.452       .  S
C935        C938   1.412       .  A
C935        C942   1.412       .  A
C936        N953   1.156       .  T
C937        N955   1.157       .  T
C938        C939   1.422       .  A
C938        C943   1.449       .  S
C939        C940   1.420       .  A
C939        C945   1.449       .  S
C940        C941   1.422       .  A
C941        C942   1.418       .  A
C941        C944   1.451       .  S
C942        C946   1.451       .  S
C943        N950   1.157   1_565  T
C944        N951   1.157       .  T
C945        N949   1.158       .  T
C946        N952   1.158       .  T
C947        N956   1.158       .  T
C948        N954   1.157       .  T
C957        C958   1.410       .  A
C957        C962   1.402       .  A
C957        C975   1.455       .  S
C958        C963   1.488       .  S
C958        C959   1.405       .  A
C959        C960   1.412       .  A
C959        C964   1.451       .  S
C960        C961   1.423       .  A
C960        C976   1.450       .  S
C961        C962   1.422       .  A
C962        C965   1.455       .  S
C963        C966   1.410       .  A
C963        C970   1.409       .  A
C964        N981   1.157       .  T
C965        N983   1.157       .  T
C966        C967   1.406       .  A
C966        C971   1.451       .  S
C967        C968   1.414       .  A
C967        C973   1.451       .  S
C968        C969   1.411       .  A
C969        C970   1.408       .  A
C969        C972   1.449       .  S
C970        C974   1.450       .  S
C971        N978   1.157       .  T
C972        N979   1.157       .  T
C973        N977   1.158       .  T
C974        N980   1.157       .  T
C975        N984   1.157       .  T
C976        N982   1.158       .  T
