geometry optimzed in LAMMPS
_audit_creation_date              2020-11-30 
_audit_creation_method            'lammps2cif' 
_symmetry_space_group_name_H-M    'P1' 
_symmetry_Int_Tables_number       1 
_symmetry_cell_setting            triclinic 
loop_ 
_symmetry_equiv_pos_as_xyz 
  x,y,z 
_cell_length_a                    53.585682484400635 
_cell_length_b                    53.7034292309747 
_cell_length_c                    53.72265446922503 
_cell_angle_alpha                 90.0237731447874 
_cell_angle_beta                  89.89825096410124 
_cell_angle_gamma                 90.01269995543811 
loop_ 
_atom_site_label 
_atom_site_type_symbol 
_atom_site_fract_x 
_atom_site_fract_y 
_atom_site_fract_z 
_atom_site_charge 
O1          O  0.19078167  0.13245562  0.16278089    -0.86050
O2          O  0.20221138  0.17273974  0.13213543    -0.83100
C3          C  0.18234489  0.17989758  0.12154413     0.97410
O4          O  0.16453430  0.18830927  0.13440996    -0.83130
O5          O  0.13464211  0.19904809  0.17504304    -0.85780
C6          C  0.12368637  0.17918943  0.18160327     1.01930
O7          O  0.13571870  0.16126293  0.19091876    -0.78540
O8          O  0.17680713  0.13089233  0.20123435    -0.78730
C9          C  0.18226257  0.12020227  0.18096572     1.01880
O10         O  0.22282823  0.15212705  0.20073233    -0.86050
O11         O  0.22980849  0.19379683  0.17285083    -0.83110
C12         C  0.22495986  0.21463344  0.16331716     0.97430
O13         O  0.20360681  0.21902783  0.15435241    -0.83140
O14         O  0.17621114  0.22553608  0.19631658    -0.85750
C15         C  0.16639644  0.22064898  0.21699850     1.01900
O16         O  0.15665003  0.19964714  0.22105726    -0.78570
O17         O  0.19866432  0.17206116  0.22699009    -0.78720
C18         C  0.21909859  0.16175389  0.22188765     1.01860
Cr19       Cr  0.20923849  0.16381420  0.16793391     1.93740
Cr20       Cr  0.17051083  0.20580675  0.16610731     1.93210
Cr21       Cr  0.16805414  0.16673209  0.20781283     1.39100
O22         O  0.18238856  0.17860121  0.18041177    -1.23800
O23         O  0.20260861  0.32444235  0.28322072    -0.86050
O24         O  0.19397783  0.29440908  0.32426300    -0.83100
C25         C  0.18451541  0.27686132  0.33678759     0.97410
O26         O  0.17811715  0.25668135  0.32638353    -0.83130
O27         O  0.13692403  0.26415911  0.29631915    -0.85780
C28         C  0.12444121  0.27361409  0.27885057     1.01930
O29         O  0.13489525  0.28100311  0.25910094    -0.78540
O30         O  0.16428304  0.32255834  0.26908899    -0.78730
C31         C  0.18218636  0.33500709  0.27795456     1.01880
O32         O  0.22990756  0.28419091  0.26083746    -0.86050
O33         O  0.22567032  0.25707821  0.30350477    -0.83110
C34         C  0.22186419  0.23524330  0.29578041     0.97430
O35         O  0.20112653  0.22916433  0.28662520    -0.83140
O36         O  0.15901403  0.23431858  0.25811731    -0.85750
C37         C  0.16682934  0.23947555  0.23651005     1.01900
O38         O  0.17556402  0.26056979  0.23146618    -0.78570
O39         O  0.20231357  0.30252946  0.23703473    -0.78720
C40         C  0.22369224  0.29325348  0.24015715     1.01860
Cr41       Cr  0.21071594  0.28908714  0.29186775     1.93740
Cr42       Cr  0.16990614  0.24842604  0.29091492     1.93210
Cr43       Cr  0.17018044  0.29051426  0.25154585     1.39100
O44         O  0.18335822  0.27612485  0.27835423    -1.23800
O45         O  0.32830746  0.17369079  0.25792697    -0.86050
O46         O  0.29890783  0.13164103  0.26593764    -0.83100
C47         C  0.28142874  0.11831338  0.27439497     0.97410
O48         O  0.26117630  0.12847566  0.28113797    -0.83130
O49         O  0.27091720  0.15630592  0.32333685    -0.85780
C50         C  0.27920338  0.17356393  0.33690085     1.01930
O51         O  0.28487793  0.19445604  0.32751061    -0.78540
O52         O  0.32621967  0.18610789  0.29676431    -0.78730
C53         C  0.33883997  0.17817378  0.27849028     1.01880
O54         O  0.28789543  0.19607879  0.23183924    -0.86050
O55         O  0.26010859  0.15319558  0.23593509    -0.83110
C56         C  0.23855147  0.16144209  0.24083481     0.97430
O57         O  0.23346002  0.16997164  0.26198274    -0.83140
O58         O  0.23865642  0.19541556  0.30462377    -0.85750
C59         C  0.24229973  0.21717311  0.29637939     1.01900
O60         O  0.26333193  0.22351213  0.28810298    -0.78570
O61         O  0.30550400  0.21960718  0.26028796    -0.78720
C62         C  0.29735106  0.21654144  0.23840440     1.01860
Cr63       Cr  0.29285676  0.16457523  0.25021745     1.93740
Cr64       Cr  0.25331230  0.16349473  0.29178458     1.93210
Cr65       Cr  0.29400850  0.20372153  0.29220367     1.39100
O66         O  0.28016208  0.17719311  0.27811760    -1.23800
O67         O  0.26214736  0.32366819  0.17616448    -0.86050
O68         O  0.26956537  0.29445156  0.13476969    -0.83100
C69         C  0.27905705  0.27766604  0.12134217     0.97410
O70         O  0.28681869  0.25766071  0.13121486    -0.83130
O71         O  0.32793495  0.26647903  0.16135752    -0.85780
C72         C  0.34055340  0.27481523  0.17933416     1.01930
O73         O  0.33000766  0.27985926  0.19974677    -0.78540
O74         O  0.30036342  0.32180169  0.19106728    -0.78730
C75         C  0.28253810  0.33417194  0.18182645     1.01880
O76         O  0.23504938  0.28340348  0.19895323    -0.86050
O77         O  0.23920327  0.25582486  0.15609742    -0.83110
C78         C  0.24424551  0.23401020  0.16333712     0.97430
O79         O  0.26558438  0.22868444  0.17134305    -0.83140
O80         O  0.30701332  0.23375525  0.19895193    -0.85750
C81         C  0.29827118  0.23722939  0.22059042     1.01900
O82         O  0.28979966  0.25816966  0.22693586    -0.78570
O83         O  0.26306355  0.30112123  0.22276049    -0.78720
C84         C  0.24138669  0.29271765  0.21951507     1.01860
Cr85       Cr  0.25381118  0.28833881  0.16756331     1.93740
Cr86       Cr  0.29576239  0.24897918  0.16668711     1.93210
Cr87       Cr  0.29486056  0.28915396  0.20773911     1.39100
O88         O  0.28158453  0.27564412  0.18045736    -1.23800
O89         O  0.76886449  0.79683952  0.82436948    -0.86050
O90         O  0.76031743  0.82576553  0.78206612    -0.83100
C91         C  0.78100603  0.83548522  0.77637555     0.97410
O92         O  0.79867724  0.82236325  0.76805165    -0.83130
O93         O  0.82824466  0.78083448  0.76022926    -0.85780
C94         C  0.83791231  0.77541786  0.78099976     1.01930
O95         O  0.82483839  0.76658859  0.79848451    -0.78540
O96         O  0.78247619  0.75843990  0.82725710    -0.78730
C97         C  0.77679133  0.77894293  0.83739381     1.01880
O98         O  0.73690012  0.75890325  0.80389852    -0.86050
O99         O  0.73303207  0.78507711  0.76142996    -0.83110
C100        C  0.73879073  0.79376425  0.74049333     0.97430
O101        O  0.76066697  0.80155084  0.73616808    -0.83140
O102        O  0.78850819  0.75869864  0.73226124    -0.85750
C103        C  0.79728757  0.73793070  0.73879326     1.01900
O104        O  0.80471496  0.73437676  0.76078531    -0.78570
O105        O  0.76134848  0.73083387  0.78696449    -0.78720
C106        C  0.74034183  0.73732617  0.79524773     1.01860
Cr107      Cr  0.75214378  0.79068189  0.79194099     1.93740
Cr108      Cr  0.79298034  0.78988666  0.75139482     1.93210
Cr109      Cr  0.79237027  0.74981105  0.79239245     1.39100
O110        O  0.77931072  0.77691040  0.77865081    -1.23800
O111        O  0.67833460  0.82595389  0.69839684    -0.86050
O112        O  0.63732812  0.79663883  0.68810695    -0.83100
C113        C  0.62442299  0.77910185  0.67937434     0.97410
O114        O  0.63450677  0.75844567  0.67384338    -0.83130
O115        O  0.66509936  0.76752757  0.63294215    -0.85780
C116        C  0.68321987  0.77627262  0.62075724     1.01930
O117        O  0.70342064  0.78210544  0.63152010    -0.78540
O118        O  0.69341004  0.82300027  0.66048201    -0.78730
C119        C  0.68402768  0.83584843  0.67772544     1.01880
O120        O  0.69873996  0.78466171  0.72598065    -0.86050
O121        O  0.65640374  0.75774114  0.71994083    -0.83110
C122        C  0.66560820  0.73638664  0.71600554     0.97430
O123        O  0.67538145  0.73119701  0.69540428    -0.83140
O124        O  0.70326655  0.73632040  0.65374886    -0.85750
C125        C  0.72448122  0.74020591  0.66331605     1.01900
O126        O  0.72959935  0.76084851  0.67306121    -0.78570
O127        O  0.72401826  0.80327506  0.69988386    -0.78720
C128        C  0.71963906  0.79409584  0.72112385     1.01860
Cr129      Cr  0.66871995  0.79040538  0.70601946     1.93740
Cr130      Cr  0.67034644  0.75052685  0.66502285     1.93210
Cr131      Cr  0.71048582  0.79130371  0.66704092     1.39100
O132        O  0.68298521  0.77759995  0.67914573    -1.23800
O133        O  0.76976276  0.66108929  0.63404222    -0.86050
O134        O  0.76161247  0.63121029  0.67507652    -0.83100
C135        C  0.78194303  0.62068480  0.68072270     0.97410
O136        O  0.79987434  0.63300878  0.68983274    -0.83130
O137        O  0.83025370  0.67471467  0.69841048    -0.85780
C138        C  0.84060308  0.68203571  0.67847063     1.01930
O139        O  0.82746092  0.69034542  0.66089572    -0.78540
O140        O  0.78573878  0.69871877  0.63201230    -0.78730
C141        C  0.77932554  0.67857443  0.62162619     1.01880
O142        O  0.73906778  0.69925080  0.65531417    -0.86050
O143        O  0.73476504  0.67143845  0.69782352    -0.83110
C144        C  0.74100994  0.66245224  0.71852329     0.97430
O145        O  0.76273288  0.65411286  0.72210465    -0.83140
O146        O  0.79028607  0.69628336  0.72685227    -0.85750
C147        C  0.79832200  0.71746972  0.72079234     1.01900
O148        O  0.80668280  0.72143682  0.69919778    -0.78570
O149        O  0.76445057  0.72593445  0.67281494    -0.78720
C150        C  0.74356449  0.72078112  0.66364173     1.01860
Cr151      Cr  0.75366738  0.66670464  0.66669340     1.93740
Cr152      Cr  0.79486991  0.66554964  0.70697429     1.93210
Cr153      Cr  0.79497698  0.70670972  0.66713326     1.39100
O154        O  0.78138183  0.67940574  0.68006339    -1.23800
O155        O  0.69144958  0.66021593  0.82240633    -0.86050
O156        O  0.70037722  0.63118368  0.78081698    -0.83100
C157        C  0.68007911  0.62091837  0.77470657     0.97410
O158        O  0.66248239  0.63340675  0.76534564    -0.83130
O159        O  0.63342411  0.67538565  0.75576019    -0.85780
C160        C  0.62298312  0.68076014  0.77613840     1.01930
O161        O  0.63544704  0.68933207  0.79412675    -0.78540
O162        O  0.67615340  0.69795075  0.82480906    -0.78730
C163        C  0.68256105  0.67779414  0.83527712     1.01880
O164        O  0.72340905  0.69777371  0.80229663    -0.86050
O165        O  0.72865649  0.67096930  0.75965953    -0.83110
C166        C  0.72284428  0.66215844  0.73875240     0.97430
O167        O  0.70125255  0.65371946  0.73479047    -0.83140
O168        O  0.67498106  0.69635254  0.72993815    -0.85750
C169        C  0.66563613  0.71714918  0.73525689     1.01900
O170        O  0.65692242  0.72137619  0.75674711    -0.78570
O171        O  0.69900260  0.72597381  0.78555671    -0.78720
C172        C  0.71975624  0.71959654  0.79454170     1.01860
Cr173      Cr  0.70867683  0.66600451  0.79018316     1.93740
Cr174      Cr  0.66893233  0.66578345  0.74882646     1.93210
Cr175      Cr  0.66789352  0.70643444  0.78934907     1.39100
O176        O  0.68170182  0.67929087  0.77629657    -1.23800
O177        O  0.78601789  0.19996072  0.82628634    -0.86050
O178        O  0.82754263  0.18933347  0.79692607    -0.83100
C179        C  0.84042959  0.18097325  0.77906174     0.97410
O180        O  0.83001446  0.17436434  0.75891508    -0.83130
O181        O  0.79974682  0.13308493  0.76745345    -0.85780
C182        C  0.78213776  0.12084696  0.77719997     1.01930
O183        O  0.76232252  0.13164460  0.78421869    -0.78540
O184        O  0.77195824  0.16182310  0.82487755    -0.78730
C185        C  0.78028616  0.17996641  0.83728782     1.01880
O186        O  0.76531426  0.22618044  0.78485314    -0.86050
O187        O  0.80810384  0.22061754  0.75879812    -0.83110
C188        C  0.79898069  0.21729153  0.73747588     0.97430
O189        O  0.78955548  0.19665095  0.73154302    -0.83140
O190        O  0.76154003  0.15427894  0.73693650    -0.85750
C191        C  0.73992855  0.16252939  0.74156246     1.01900
O192        O  0.73478116  0.17185573  0.76240850    -0.78570
O193        O  0.74044670  0.19995277  0.80386175    -0.78720
C194        C  0.74440039  0.22102593  0.79414893     1.01860
Cr195      Cr  0.79569420  0.20673261  0.79089679     1.93740
Cr196      Cr  0.79434450  0.16567097  0.75095281     1.93210
Cr197      Cr  0.75463726  0.16713543  0.79273588     1.39100
O198        O  0.78176784  0.17954565  0.77834365    -1.23800
O199        O  0.78730941  0.25718318  0.63086195    -0.86050
O200        O  0.82807165  0.26816187  0.66121443    -0.83100
C201        C  0.84061600  0.27585480  0.67956213     0.97410
O202        O  0.83017962  0.28026307  0.70023083    -0.83130
O203        O  0.80074532  0.32209112  0.69121784    -0.85780
C204        C  0.78342927  0.33483686  0.68164976     1.01930
O205        O  0.76320652  0.32470373  0.67469984    -0.78540
O206        O  0.77195194  0.29478872  0.63347784    -0.78730
C207        C  0.78019585  0.27706838  0.62043218     1.01880
O208        O  0.76653333  0.22939911  0.67141178    -0.86050
O209        O  0.80839925  0.23510871  0.69851687    -0.83110
C210        C  0.79879419  0.23789646  0.71980810     0.97430
O211        O  0.78894599  0.25828112  0.72602073    -0.83140
O212        O  0.76195829  0.30162702  0.72153136    -0.85750
C213        C  0.74032231  0.29359627  0.71690188     1.01900
O214        O  0.73530866  0.28410198  0.69613126    -0.78570
O215        O  0.74071280  0.25615262  0.65444438    -0.78720
C216        C  0.74535182  0.23458715  0.66283934     1.01860
Cr217      Cr  0.79656844  0.24971863  0.66637966     1.93740
Cr218      Cr  0.79454383  0.28953459  0.70747746     1.93210
Cr219      Cr  0.75502512  0.28907233  0.66575368     1.39100
O220        O  0.78212530  0.27631749  0.67971097    -1.23800
O221        O  0.63789965  0.15952253  0.68948831    -0.86050
O222        O  0.67866259  0.13011859  0.70026620    -0.83100
C223        C  0.68489936  0.11939832  0.68024646     0.97410
O224        O  0.69454071  0.13165656  0.66261555    -0.83130
O225        O  0.70473526  0.17256121  0.63233718    -0.85780
C226        C  0.68444404  0.17822046  0.62172807     1.01930
O227        O  0.66652522  0.18732101  0.63399119    -0.78540
O228        O  0.63582653  0.19746089  0.67423236    -0.78730
C229        C  0.62551025  0.17708814  0.68010031     1.01880
O230        O  0.65746555  0.19810483  0.72078227    -0.86050
O231        O  0.69960811  0.17132086  0.72727654    -0.83110
C232        C  0.72055995  0.16198745  0.72241773     0.97430
O233        O  0.72500950  0.15272898  0.70122743    -0.83140
O234        O  0.73107633  0.19460190  0.67326668    -0.85750
C235        C  0.72600211  0.21522298  0.66337344     1.01900
O236        O  0.70452969  0.21932237  0.65451625    -0.78570
O237        O  0.67579094  0.22531998  0.69640433    -0.78720
C238        C  0.66629223  0.21957087  0.71708109     1.01860
Cr239      Cr  0.66953872  0.16563035  0.70722686     1.93740
Cr240      Cr  0.71156633  0.16397811  0.66819762     1.93210
Cr241      Cr  0.67157702  0.20517865  0.66585726     1.39100
O242        O  0.68409221  0.17813692  0.68027025    -1.23800
O243        O  0.69320243  0.32276685  0.79638309    -0.86050
O244        O  0.70201192  0.28091304  0.82499236    -0.83100
C245        C  0.68157591  0.27428163  0.83488943     0.97410
O246        O  0.66412617  0.26531309  0.82195908    -0.83130
O247        O  0.63468738  0.25758444  0.78006527    -0.85780
C248        C  0.62462897  0.27830819  0.77487263     1.01930
O249        O  0.63761993  0.29641838  0.76743145    -0.78540
O250        O  0.67889000  0.32628942  0.75850609    -0.78730
C251        C  0.68504749  0.33623109  0.77901660     1.01880
O252        O  0.72475787  0.30310725  0.75732902    -0.86050
O253        O  0.72983413  0.26064427  0.78388722    -0.83110
C254        C  0.72469730  0.23981451  0.79315264     0.97430
O255        O  0.70293752  0.23509509  0.80103221    -0.83140
O256        O  0.67571754  0.23109523  0.75804266    -0.85750
C257        C  0.66642651  0.23748259  0.73752541     1.01900
O258        O  0.65753002  0.25905962  0.73449850    -0.78570
O259        O  0.69967866  0.28574606  0.73024318    -0.78720
C260        C  0.72067444  0.29442849  0.73579932     1.01860
Cr261      Cr  0.71023331  0.29082618  0.78973863     1.93740
Cr262      Cr  0.67027360  0.24949037  0.78930236     1.93210
Cr263      Cr  0.66940371  0.29098484  0.74987200     1.39100
O264        O  0.68314138  0.27723276  0.77652778    -1.23800
O265        O  0.19139905  0.82283140  0.79535153    -0.86050
O266        O  0.19938178  0.78126122  0.82487446    -0.83100
C267        C  0.17911467  0.77465366  0.83502597     0.97410
O268        O  0.16146547  0.76551026  0.82243804    -0.83130
O269        O  0.13218494  0.75722870  0.78054479    -0.85780
C270        C  0.12178986  0.77773749  0.77546609     1.01930
O271        O  0.13452248  0.79561266  0.76694991    -0.78540
O272        O  0.17617809  0.82516310  0.75767768    -0.78730
C273        C  0.18266354  0.83569521  0.77771515     1.01880
O274        O  0.22266082  0.80166425  0.75725463    -0.86050
O275        O  0.22733638  0.75915862  0.78524831    -0.83110
C276        C  0.22110154  0.73841234  0.79425167     0.97430
O277        O  0.19924475  0.73455232  0.80197554    -0.83140
O278        O  0.17290626  0.73010821  0.75903734    -0.85750
C279        C  0.16427295  0.73633015  0.73819936     1.01900
O280        O  0.15513262  0.75774066  0.73486768    -0.78570
O281        O  0.19728254  0.78473490  0.73009820    -0.78720
C282        C  0.21821754  0.79374230  0.73553930     1.01860
Cr283      Cr  0.20791263  0.79014815  0.78971224     1.93740
Cr284      Cr  0.16736995  0.74917767  0.78993314     1.93210
Cr285      Cr  0.16679237  0.78988455  0.74972299     1.39100
O286        O  0.18058101  0.77658411  0.77668264    -1.23800
O287        O  0.19359856  0.63374017  0.65824580    -0.86050
O288        O  0.20291829  0.67556810  0.62997041    -0.83100
C289        C  0.18293135  0.68259198  0.61967641     0.97410
O290        O  0.16529233  0.69166577  0.63242493    -0.83130
O291        O  0.13513812  0.69846218  0.67434354    -0.85780
C292        C  0.12514931  0.67776566  0.67962969     1.01930
O293        O  0.13799174  0.65974649  0.68753877    -0.78540
O294        O  0.17950179  0.63000347  0.69639353    -0.78730
C295        C  0.18481460  0.62046928  0.67552515     1.01880
O296        O  0.22542985  0.65377139  0.69705266    -0.86050
O297        O  0.23026855  0.69622835  0.67077417    -0.83110
C298        C  0.22488458  0.71738980  0.66233966     0.97430
O299        O  0.20315702  0.72211236  0.65453496    -0.83140
O300        O  0.17497852  0.72541944  0.69717018    -0.85750
C301        C  0.16546629  0.71870103  0.71753559     1.01900
O302        O  0.15754244  0.69677383  0.72056061    -0.78570
O303        O  0.20032349  0.67017752  0.72485781    -0.78720
C304        C  0.22146709  0.66211590  0.71869671     1.01860
Cr305      Cr  0.21076657  0.66582484  0.66497695     1.93740
Cr306      Cr  0.17060830  0.70706155  0.66562194     1.93210
Cr307      Cr  0.16989566  0.66518614  0.70507308     1.39100
O308        O  0.18362075  0.67928986  0.67837590    -1.23800
O309        O  0.26083782  0.82662517  0.67541973    -0.86050
O310        O  0.27197897  0.79728341  0.63460865    -0.83100
C311        C  0.28096699  0.77976558  0.62184517     0.97410
O312        O  0.28680306  0.75926964  0.63200737    -0.83130
O313        O  0.32726055  0.76912109  0.66320615    -0.85780
C314        C  0.33926001  0.77728883  0.68170837     1.01930
O315        O  0.32781648  0.78273037  0.70163545    -0.78540
O316        O  0.29842232  0.82357543  0.69095415    -0.78730
C317        C  0.28111338  0.83679386  0.68221300     1.01880
O318        O  0.23303438  0.78498798  0.69543993    -0.86050
O319        O  0.24015616  0.75806270  0.65339919    -0.83110
C320        C  0.24421010  0.73666806  0.66245892     0.97430
O321        O  0.26486105  0.73155659  0.67222602    -0.83140
O322        O  0.30607755  0.73720535  0.70079939    -0.85750
C323        C  0.29621971  0.74092577  0.72191234     1.01900
O324        O  0.28586217  0.76132921  0.72687141    -0.78570
O325        O  0.25879738  0.80364829  0.72091035    -0.78720
C326        C  0.23762856  0.79432747  0.71637334     1.01860
Cr327      Cr  0.25360885  0.79089950  0.66574859     1.93740
Cr328      Cr  0.29518323  0.75143371  0.66782225     1.93210
Cr329      Cr  0.29195476  0.79185818  0.70792244     1.39100
O330        O  0.28039180  0.77820418  0.68032630    -1.23800
O331        O  0.26878851  0.63402956  0.79628123    -0.86050
O332        O  0.25981917  0.67551427  0.82646942    -0.83100
C333        C  0.28054691  0.68062464  0.83647651     0.97410
O334        O  0.29843390  0.68892980  0.82358970    -0.83130
O335        O  0.32812716  0.69949020  0.78241440    -0.85780
C336        C  0.33814079  0.67891734  0.77688902     1.01930
O337        O  0.32514950  0.66138192  0.76814348    -0.78540
O338        O  0.28381713  0.63209398  0.75835718    -0.78730
C339        C  0.27728163  0.62138590  0.77832896     1.01880
O340        O  0.23752775  0.65501967  0.75867576    -0.86050
O341        O  0.23282645  0.69730663  0.78595461    -0.83110
C342        C  0.23900338  0.71805112  0.79487351     0.97430
O343        O  0.26041067  0.72138760  0.80404493    -0.83140
O344        O  0.28712322  0.72676484  0.76196707    -0.85750
C345        C  0.29627036  0.72158967  0.74105503     1.01900
O346        O  0.30491337  0.70010665  0.73661298    -0.78570
O347        O  0.26241711  0.67208665  0.73096321    -0.78720
C348        C  0.24161172  0.66287704  0.73690248     1.01860
Cr349      Cr  0.25200934  0.66650031  0.79095543     1.93740
Cr350      Cr  0.29260931  0.70691635  0.79200281     1.93210
Cr351      Cr  0.29311172  0.66737253  0.75071568     1.39100
O352        O  0.27928735  0.68013964  0.77792043    -1.23800
O353        O  0.18052050  0.82652681  0.19795022    -0.86050
O354        O  0.13865709  0.79708214  0.18887617    -0.83100
C355        C  0.12570005  0.77929717  0.18051610     0.97410
O356        O  0.13556695  0.75859393  0.17504783    -0.83130
O357        O  0.16528706  0.76608881  0.13320318    -0.85780
C358        C  0.18275459  0.77486264  0.12006082     1.01930
O359        O  0.20290310  0.78179885  0.13019527    -0.78540
O360        O  0.19341677  0.82317088  0.15934267    -0.78730
C361        C  0.18544297  0.83628357  0.17710645     1.01880
O362        O  0.20156001  0.78595097  0.22542103    -0.86050
O363        O  0.15837136  0.75949062  0.22124721    -0.83110
C364        C  0.16601864  0.73752071  0.21778633     0.97430
O365        O  0.17539724  0.73110607  0.19724952    -0.83140
O366        O  0.20354447  0.73536486  0.15466565    -0.85750
C367        C  0.22529299  0.74009571  0.16248258     1.01900
O368        O  0.23075684  0.76121697  0.17087140    -0.78570
O369        O  0.22597879  0.80322815  0.19751741    -0.78720
C370        C  0.22253014  0.79441746  0.21907552     1.01860
Cr371      Cr  0.17076801  0.79128160  0.20613234     1.93740
Cr372      Cr  0.17095254  0.75008006  0.16604165     1.93210
Cr373      Cr  0.21099632  0.79135474  0.16543369     1.39100
O374        O  0.18413009  0.77758526  0.17908401    -1.23800
O375        O  0.32964775  0.75566989  0.28197732    -0.86050
O376        O  0.30038635  0.76605290  0.32362337    -0.83100
C377        C  0.28280527  0.77546277  0.33616973     0.97410
O378        O  0.26234036  0.78097605  0.32585855    -0.83130
O379        O  0.27141556  0.82211084  0.29610644    -0.85780
C380        C  0.28036096  0.83464102  0.27832140     1.01930
O381        O  0.28664472  0.82398093  0.25818813    -0.78540
O382        O  0.32742895  0.79356143  0.26678699    -0.78730
C383        C  0.34000200  0.77588847  0.27579130     1.01880
O384        O  0.28828809  0.72871626  0.26153763    -0.86050
O385        O  0.26161526  0.73481603  0.30369478    -0.83110
C386        C  0.24019646  0.73856991  0.29470119     0.97430
O387        O  0.23434559  0.75943880  0.28587781    -0.83140
O388        O  0.23945753  0.80174982  0.25870704    -0.85750
C389        C  0.24305320  0.79367058  0.23695181     1.01900
O390        O  0.26369345  0.78424091  0.23077991    -0.78570
O391        O  0.30572690  0.75529812  0.23585859    -0.78720
C392        C  0.29737480  0.73372897  0.24056357     1.01860
Cr393      Cr  0.29407487  0.74865722  0.29162512     1.93740
Cr394      Cr  0.25417682  0.78993714  0.29070969     1.93210
Cr395      Cr  0.29485532  0.78832883  0.25013238     1.39100
O396        O  0.28117989  0.77580625  0.27757310    -1.23800
O397        O  0.17919102  0.63066331  0.25698803    -0.86050
O398        O  0.13700723  0.65922758  0.26656943    -0.83100
C399        C  0.12341351  0.67665827  0.27448311     0.97410
O400        O  0.13321798  0.69724456  0.28065690    -0.83130
O401        O  0.16316106  0.68962062  0.32247510    -0.85780
C402        C  0.18113171  0.68086294  0.33490092     1.01930
O403        O  0.20153727  0.67516183  0.32443654    -0.78540
O404        O  0.19370392  0.63400690  0.29501006    -0.78730
C405        C  0.18556147  0.62082532  0.27741369     1.01880
O406        O  0.19884869  0.67214159  0.22970102    -0.86050
O407        O  0.15634910  0.69796822  0.23467737    -0.83110
C408        C  0.16491919  0.71960204  0.23826976     0.97430
O409        O  0.17316561  0.72586825  0.25925002    -0.83140
O410        O  0.20025702  0.72178309  0.30165407    -0.85750
C411        C  0.22218931  0.71827193  0.29377645     1.01900
O412        O  0.22865364  0.69771986  0.28451605    -0.78570
O413        O  0.22451068  0.65514485  0.25647504    -0.78720
C414        C  0.21975716  0.66306698  0.23481320     1.01860
Cr415      Cr  0.16882395  0.66595623  0.24931214     1.93740
Cr416      Cr  0.16838333  0.70636581  0.28997008     1.93210
Cr417      Cr  0.20988057  0.66651574  0.28914547     1.39100
O418        O  0.18226857  0.67950043  0.27633290    -1.23800
O419        O  0.27156016  0.66114406  0.13291216    -0.86050
O420        O  0.25939576  0.63074271  0.17299768    -0.83100
C421        C  0.27957141  0.61970537  0.17819757     0.97410
O422        O  0.29773784  0.63161520  0.18723461    -0.83130
O423        O  0.32830689  0.67157089  0.19863750    -0.85780
C424        C  0.33921444  0.67822911  0.17883904     1.01930
O425        O  0.32723517  0.68826668  0.16130293    -0.78540
O426        O  0.28642973  0.69928275  0.13135546    -0.78730
C427        C  0.28076485  0.67902577  0.12070107     1.01880
O428        O  0.24051358  0.69986657  0.15273289    -0.86050
O429        O  0.23367657  0.67231682  0.19461710    -0.83110
C430        C  0.23858341  0.66233584  0.21521354     0.97430
O431        O  0.25947299  0.65212821  0.21897224    -0.83140
O432        O  0.28787448  0.69343854  0.22613917    -0.85750
C433        C  0.29759371  0.71426569  0.22139850     1.01900
O434        O  0.30699530  0.71858726  0.20025429    -0.78570
O435        O  0.26505312  0.72548120  0.17284278    -0.78720
C436        C  0.24453648  0.72086344  0.16253554     1.01860
Cr437      Cr  0.25342509  0.66677150  0.16435582     1.93740
Cr438      Cr  0.29259615  0.66327784  0.20564554     1.93210
Cr439      Cr  0.29531622  0.70569904  0.16720933     1.39100
O440        O  0.28067773  0.67841948  0.17891024    -1.23800
O441        O  0.76258571  0.82507550  0.17619241    -0.86050
O442        O  0.77235029  0.79597354  0.13494173    -0.83100
C443        C  0.78132030  0.77846789  0.12208498     0.97410
O444        O  0.78755830  0.75822341  0.13233851    -0.83130
O445        O  0.82831220  0.76790128  0.16265696    -0.85780
C446        C  0.84102697  0.77615082  0.18066976     1.01930
O447        O  0.83036992  0.78203651  0.20091963    -0.78540
O448        O  0.79994198  0.82330554  0.19311177    -0.78730
C449        C  0.78247029  0.83561995  0.18331387     1.01880
O450        O  0.73510465  0.78413710  0.19698851    -0.86050
O451        O  0.74089664  0.75713267  0.15472528    -0.83110
C452        C  0.74497086  0.73562283  0.16338157     0.97430
O453        O  0.76589794  0.73028039  0.17252193    -0.83140
O454        O  0.80814183  0.73536170  0.19959367    -0.85750
C455        C  0.79913568  0.73839644  0.22105423     1.01900
O456        O  0.78974991  0.75893678  0.22741504    -0.78570
O457        O  0.76158953  0.80137339  0.22287877    -0.78720
C458        C  0.74000103  0.79330291  0.21793516     1.01860
Cr459      Cr  0.75502910  0.78969102  0.16685576     1.93740
Cr460      Cr  0.79638013  0.75023461  0.16770441     1.93210
Cr461      Cr  0.79452782  0.79034148  0.20877126     1.39100
O462        O  0.78217638  0.77702155  0.18096264    -1.23800
O463        O  0.82906598  0.67348655  0.25927267    -0.86050
O464        O  0.79840742  0.63270375  0.26658948    -0.83100
C465        C  0.78050655  0.62032394  0.27555941     0.97410
O466        O  0.76060730  0.63104598  0.28248652    -0.83130
O467        O  0.77047961  0.66061381  0.32379102    -0.85780
C468        C  0.77917991  0.67799375  0.33699389     1.01930
O469        O  0.78541767  0.69843649  0.32711742    -0.78540
O470        O  0.82721886  0.68804731  0.29756566    -0.78730
C471        C  0.83947921  0.67860322  0.27979194     1.01880
O472        O  0.78947093  0.69715531  0.23206480    -0.86050
O473        O  0.76096118  0.65495821  0.23593080    -0.83110
C474        C  0.73939990  0.66329347  0.24045770     0.97430
O475        O  0.73417932  0.67250372  0.26134853    -0.83140
O476        O  0.73975654  0.69962304  0.30366366    -0.85750
C477        C  0.74426629  0.72106548  0.29499632     1.01900
O478        O  0.76537663  0.72617342  0.28614030    -0.78570
O479        O  0.80804431  0.72043915  0.25995985    -0.78720
C480        C  0.79901579  0.71759159  0.23849990     1.01860
Cr481      Cr  0.79360181  0.66569577  0.25071847     1.93740
Cr482      Cr  0.75352573  0.66680155  0.29181235     1.93210
Cr483      Cr  0.79540105  0.70595906  0.29176269     1.39100
O484        O  0.78104537  0.67921775  0.27826524    -1.23800
O485        O  0.69294615  0.82378211  0.29650519    -0.86050
O486        O  0.70231853  0.78277471  0.32618738    -0.83100
C487        C  0.68233741  0.77589557  0.33675299     0.97410
O488        O  0.66492937  0.76603417  0.32427778    -0.83130
O489        O  0.63473296  0.75792550  0.28265995    -0.85780
C490        C  0.62456063  0.77844275  0.27696395     1.01930
O491        O  0.63723585  0.79635471  0.26855440    -0.78540
O492        O  0.67848744  0.82578591  0.25852169    -0.78730
C493        C  0.68433583  0.83640930  0.27870794     1.01880
O494        O  0.72430884  0.80313076  0.25803238    -0.86050
O495        O  0.73000828  0.76125430  0.28563218    -0.83110
C496        C  0.72482783  0.74025922  0.29461115     0.97430
O497        O  0.70314688  0.73554921  0.30265197    -0.83140
O498        O  0.67522443  0.73088072  0.26006870    -0.85750
C499        C  0.66576605  0.73709777  0.23953146     1.01900
O500        O  0.65673963  0.75854473  0.23652224    -0.78570
O501        O  0.69938682  0.78479032  0.23142058    -0.78720
C502        C  0.72029056  0.79392667  0.23674100     1.01860
Cr503      Cr  0.71012578  0.79161711  0.29071767     1.93740
Cr504      Cr  0.67039490  0.74985831  0.29138211     1.93210
Cr505      Cr  0.66903891  0.79048560  0.25103004     1.39100
O506        O  0.68299741  0.77746391  0.27800171    -1.23800
O507        O  0.66495960  0.69100364  0.13432883    -0.86050
O508        O  0.63464508  0.69879821  0.17536930    -0.83100
C509        C  0.62471711  0.67788667  0.18027807     0.97410
O510        O  0.63781488  0.66035723  0.18882194    -0.83130
O511        O  0.67876262  0.63107498  0.19938954    -0.85780
C512        C  0.68429298  0.62045741  0.17911880     1.01930
O513        O  0.69296442  0.63302454  0.16124253    -0.78540
O514        O  0.70220058  0.67444815  0.13140811    -0.78730
C515        C  0.68213058  0.68175421  0.12118349     1.01880
O516        O  0.70349505  0.72158660  0.15576576    -0.86050
O517        O  0.67540578  0.72587947  0.19825608    -0.83110
C518        C  0.66580429  0.71956640  0.21870295     0.97430
O519        O  0.65653141  0.69817162  0.22143476    -0.83140
O520        O  0.69916446  0.67205868  0.22654478    -0.85750
C521        C  0.72007725  0.66290080  0.22129581     1.01900
O522        O  0.72434451  0.65385222  0.19989762    -0.78570
O523        O  0.73029713  0.69544466  0.17208858    -0.78720
C524        C  0.72523727  0.71660787  0.16351441     1.01860
Cr525      Cr  0.67055505  0.70710890  0.16692544     1.93740
Cr526      Cr  0.66911477  0.66632930  0.20681359     1.93210
Cr527      Cr  0.71020766  0.66526498  0.16701214     1.39100
O528        O  0.68320852  0.67947783  0.18001298    -1.23800
O529        O  0.78332610  0.13009068  0.19922626    -0.86050
O530        O  0.82519276  0.15966567  0.19208922    -0.83100
C531        C  0.83811541  0.17716521  0.18319209     0.97410
O532        O  0.82816379  0.19744414  0.17642597    -0.83130
O533        O  0.79940811  0.18857589  0.13452133    -0.85780
C534        C  0.78171587  0.18069491  0.12124938     1.01930
O535        O  0.76121401  0.17468180  0.13133069    -0.78540
O536        O  0.77072423  0.13322295  0.16038627    -0.78730
C537        C  0.77888955  0.12033711  0.17820105     1.01880
O538        O  0.76088076  0.17079080  0.22611878    -0.86050
O539        O  0.80399972  0.19802548  0.22252079    -0.83110
C540        C  0.79640028  0.21979009  0.21771312     0.97430
O541        O  0.78720341  0.22496358  0.19685891    -0.83140
O542        O  0.76034547  0.21993456  0.15445020    -0.85750
C543        C  0.73868978  0.21580319  0.16299014     1.01900
O544        O  0.73315188  0.19492740  0.17195879    -0.78570
O545        O  0.73761443  0.15238519  0.19810828    -0.78720
C546        C  0.74034867  0.16150979  0.21959302     1.01860
Cr547      Cr  0.79235490  0.16553580  0.20780697     1.93740
Cr548      Cr  0.79287531  0.20551991  0.16658210     1.93210
Cr549      Cr  0.75287691  0.16476008  0.16638318     1.39100
O550        O  0.77961605  0.17847059  0.18013906    -1.23800
O551        O  0.70053606  0.17407629  0.32629921    -0.86050
O552        O  0.69098782  0.13333937  0.29624352    -0.83100
C553        C  0.68256085  0.12060422  0.27840436     0.97410
O554        O  0.67580178  0.13114516  0.25840808    -0.83130
O555        O  0.63504611  0.16220222  0.26718704    -0.85780
C556        C  0.62290608  0.18001226  0.27669152     1.01930
O557        O  0.63378272  0.19996492  0.28297518    -0.78540
O558        O  0.66306347  0.19050553  0.32403761    -0.78730
C559        C  0.68026058  0.18055836  0.33651939     1.01880
O560        O  0.72867282  0.19527934  0.28560023    -0.86050
O561        O  0.72299004  0.15321005  0.25881100    -0.83110
C562        C  0.71956612  0.16162632  0.23719336     0.97430
O563        O  0.69889430  0.17090217  0.23099896    -0.83140
O564        O  0.65683571  0.19973587  0.23596622    -0.85750
C565        C  0.66554857  0.22119056  0.24028007     1.01900
O566        O  0.67504213  0.22629437  0.26106989    -0.78570
O567        O  0.70228820  0.22080736  0.30338941    -0.78720
C568        C  0.72365595  0.21633622  0.29447065     1.01860
Cr569      Cr  0.70849755  0.16516732  0.29085988     1.93740
Cr570      Cr  0.66771662  0.16691654  0.25045940     1.93210
Cr571      Cr  0.66942750  0.20706608  0.29173266     1.39100
O572        O  0.68163444  0.17949418  0.27785978    -1.23800
O573        O  0.76914894  0.29623737  0.32205657    -0.86050
O574        O  0.76107464  0.32523310  0.28058136    -0.83100
C575        C  0.78157441  0.33569160  0.27517581     0.97410
O576        O  0.79969687  0.32324248  0.26678588    -0.83130
O577        O  0.82952612  0.28175704  0.25832865    -0.85780
C578        C  0.83952815  0.27561080  0.27875283     1.01930
O579        O  0.82626779  0.26729790  0.29631088    -0.78540
O580        O  0.78422781  0.25833566  0.32550028    -0.78730
C581        C  0.77778448  0.27885603  0.33523428     1.01880
O582        O  0.73834031  0.25747413  0.30157684    -0.86050
O583        O  0.73433106  0.28461652  0.25847253    -0.83110
C584        C  0.74077112  0.29391620  0.23793182     0.97430
O585        O  0.76234781  0.30277597  0.23482021    -0.83140
O586        O  0.78892002  0.26051297  0.23071977    -0.85750
C587        C  0.79749604  0.23952625  0.23641048     1.01900
O588        O  0.80639275  0.23557395  0.25784134    -0.78570
O589        O  0.76382718  0.23046688  0.28459193    -0.78720
C590        C  0.74288418  0.23573787  0.29371310     1.01860
Cr591      Cr  0.75291553  0.28996605  0.28968633     1.93740
Cr592      Cr  0.79424262  0.29100059  0.24992112     1.93210
Cr593      Cr  0.79418179  0.25017078  0.29014591     1.39100
O594        O  0.78062293  0.27723715  0.27680302    -1.23800
O595        O  0.63638790  0.26748402  0.16065916    -0.86050
O596        O  0.67781270  0.25754141  0.13111555    -0.83100
C597        C  0.68506239  0.27730335  0.12031675     0.97410
O598        O  0.69403558  0.29494762  0.13298639    -0.83130
O599        O  0.70250883  0.32511293  0.17401513    -0.85780
C600        C  0.68230498  0.33574385  0.18008984     1.01930
O601        O  0.66427731  0.32362110  0.18909662    -0.78540
O602        O  0.63405121  0.28286116  0.19841775    -0.78730
C603        C  0.62372500  0.27683869  0.17814055     1.01880
O604        O  0.65636126  0.23632596  0.19959560    -0.86050
O605        O  0.69864192  0.23041347  0.17234730    -0.83110
C606        C  0.71964190  0.23529875  0.16310813     0.97430
O607        O  0.72436997  0.25669683  0.15455567    -0.83140
O608        O  0.72924528  0.28476227  0.19678253    -0.85750
C609        C  0.72311782  0.29412890  0.21738180     1.01900
O610        O  0.70171410  0.30324923  0.22069509    -0.78570
O611        O  0.67464045  0.26136600  0.22606245    -0.78720
C612        C  0.66531601  0.24053242  0.22098483     1.01860
Cr613      Cr  0.66837548  0.25020507  0.16677752     1.93740
Cr614      Cr  0.71025079  0.28952971  0.16567465     1.93210
Cr615      Cr  0.66953866  0.29162781  0.20627282     1.39100
O616        O  0.68252225  0.27736747  0.17930163    -1.23800
O617        O  0.64619757  0.50769890  0.17331388    -0.86050
O618        O  0.59811277  0.49656027  0.16390988    -0.83100
C619        C  0.59269563  0.51323648  0.14802145     0.97410
O620        O  0.60068122  0.51179330  0.12604067    -0.83130
O621        O  0.63134322  0.50119625  0.08686863    -0.85780
C622        C  0.64799977  0.51736568  0.09048275     1.01930
O623        O  0.66362723  0.51465269  0.10769880    -0.78540
O624        O  0.68082981  0.50030237  0.15316954    -0.78730
C625        C  0.66758102  0.51460986  0.16650996     1.01880
O626        O  0.65973321  0.45472507  0.17349518    -0.86050
O627        O  0.61205547  0.44402391  0.16004560    -0.83110
C628        C  0.59288431  0.44304955  0.14662944     0.97430
O629        O  0.58842745  0.46012499  0.13111300    -0.83140
O630        O  0.62459529  0.44990142  0.09650835    -0.85750
C631        C  0.64546169  0.44789654  0.08581942     1.01900
O632        O  0.66287109  0.46316882  0.09071439    -0.78570
O633        O  0.67601367  0.44849752  0.13677596    -0.78720
C634        C  0.67060137  0.44049631  0.15806208     1.01860
Cr635      Cr  0.62979648  0.47594650  0.16558924     1.93740
Cr636      Cr  0.61299059  0.48067497  0.11171907     1.93210
Cr637      Cr  0.66875378  0.48154896  0.12310452     1.39100
O638        O  0.63728094  0.47942922  0.13356241    -1.23800
O639        O  0.45858824  0.65236831  0.17808448    -0.86050
O640        O  0.44715430  0.60555152  0.16129205    -0.83100
C641        C  0.44666987  0.58678386  0.14724251     0.97410
O642        O  0.46296403  0.58432885  0.13041859    -0.83130
O643        O  0.45155603  0.62227584  0.09776890    -0.85780
C644        C  0.44962442  0.64402400  0.08913025     1.01930
O645        O  0.46462489  0.66112331  0.09568750    -0.78540
O646        O  0.45143122  0.67155437  0.14288204    -0.78730
C647        C  0.44457442  0.66541115  0.16436939     1.01880
O648        O  0.51104950  0.63882636  0.17560879    -0.86050
O649        O  0.49954230  0.59181324  0.16328312    -0.83110
C650        C  0.51564088  0.58646412  0.14678327     0.97430
O651        O  0.51451551  0.59629661  0.12545861    -0.83140
O652        O  0.50341623  0.62988486  0.08807211    -0.85750
C653        C  0.51892169  0.64707891  0.09221638     1.01900
O654        O  0.51686310  0.66051174  0.11123265    -0.78570
O655        O  0.50389142  0.67469464  0.15786362    -0.78720
C656        C  0.51823896  0.66037482  0.16991032     1.01860
Cr657      Cr  0.47916597  0.62311446  0.16736653     1.93740
Cr658      Cr  0.48303368  0.60992540  0.11220044     1.93210
Cr659      Cr  0.48406437  0.66473251  0.12772046     1.39100
O660        O  0.48200919  0.63268484  0.13582719    -1.23800
O661        O  0.50390046  0.30226083  0.17389279    -0.86050
O662        O  0.51485675  0.34983711  0.16013459    -0.83100
C663        C  0.51591874  0.36901152  0.14677241     0.97410
O664        O  0.49913005  0.37344377  0.13084335    -0.83130
O665        O  0.51084577  0.33832357  0.09566175    -0.85780
C666        C  0.51353225  0.31713559  0.08596842     1.01930
O667        O  0.49871449  0.29943212  0.09101297    -0.78540
O668        O  0.51268847  0.28667157  0.13732906    -0.78730
C669        C  0.51877709  0.29091401  0.15947458     1.01880
O670        O  0.45120409  0.31529900  0.17166977    -0.86050
O671        O  0.46258217  0.36350743  0.16278240    -0.83110
C672        C  0.44597074  0.36889530  0.14689261     0.97430
O673        O  0.44718682  0.36049001  0.12503438    -0.83140
O674        O  0.45891920  0.32999815  0.08554765    -0.85750
C675        C  0.44406485  0.31196364  0.08865358     1.01900
O676        O  0.44682852  0.29726488  0.10663110    -0.78570
O677        O  0.46069039  0.28068321  0.15244646    -0.78720
C678        C  0.44557712  0.29346246  0.16532448     1.01860
Cr679      Cr  0.48300059  0.33200289  0.16496141     1.93740
Cr680      Cr  0.47908579  0.34883758  0.11086815     1.93210
Cr681      Cr  0.47975882  0.29315432  0.12275739     1.39100
O682        O  0.48066862  0.32458575  0.13287189    -1.23800
O683        O  0.28122636  0.49941833  0.15101069    -0.86050
O684        O  0.30005837  0.51153186  0.10496966    -0.83100
C685        C  0.31582707  0.51278711  0.08757386     0.97410
O686        O  0.33289983  0.49667975  0.08620390    -0.83130
O687        O  0.36208338  0.51045227  0.12579226    -0.85780
C688        C  0.37009775  0.51231490  0.14772940     1.01930
O689        O  0.36348894  0.49690169  0.16444930    -0.78540
O690        O  0.31514274  0.50800347  0.17206838    -0.78730
C691        C  0.29406221  0.51431388  0.16406644     1.01880
O692        O  0.28717353  0.44669947  0.13749021    -0.86050
O693        O  0.30186871  0.45911893  0.09119689    -0.83110
C694        C  0.32000879  0.44453101  0.08669996     0.97430
O695        O  0.33998550  0.44617940  0.09898263    -0.83140
O696        O  0.37480057  0.45974692  0.13429020    -0.85750
C697        C  0.37042878  0.44340759  0.15057625     1.01900
O698        O  0.35036829  0.44402641  0.16275466    -0.78570
O699        O  0.30212070  0.45473041  0.17435752    -0.78720
C700        C  0.29182781  0.43969918  0.15931427     1.01860
Cr701      Cr  0.29456428  0.47916194  0.12232843     1.93740
Cr702      Cr  0.35059852  0.47823495  0.11288608     1.93210
Cr703      Cr  0.33201511  0.47601090  0.16631283     1.39100
O704        O  0.32559303  0.47790864  0.13394856    -1.23800
O705        O  0.51315385  0.28644157  0.81451318    -0.86050
O706        O  0.50044527  0.29576807  0.86188801    -0.83100
C707        C  0.51544858  0.31287644  0.86832733     0.97410
O708        O  0.51334046  0.33468241  0.85984949    -0.83130
O709        O  0.50078112  0.37293857  0.82787813    -0.85780
C710        C  0.51647217  0.37119226  0.81031923     1.01930
O711        O  0.51568124  0.35278776  0.79587530    -0.78540
O712        O  0.50506651  0.30572404  0.77952805    -0.78730
C713        C  0.51982404  0.29349965  0.79324647     1.01880
O714        O  0.46038956  0.28255247  0.80015428    -0.86050
O715        O  0.44798529  0.29608476  0.84774154    -0.83110
C716        C  0.44664289  0.30901500  0.86726979     0.97430
O717        O  0.46212310  0.32637381  0.87090995    -0.83140
O718        O  0.44934759  0.36005939  0.83414274    -0.85750
C719        C  0.44775971  0.37016566  0.81302531     1.01900
O720        O  0.46358544  0.36557805  0.79608160    -0.78570
O721        O  0.45226592  0.31866669  0.78332183    -0.78720
C722        C  0.44596634  0.29665866  0.78789011     1.01860
Cr723      Cr  0.48054436  0.29240831  0.83020608     1.93740
Cr724      Cr  0.48144315  0.34688094  0.84637632     1.93210
Cr725      Cr  0.48406625  0.33461087  0.79091556     1.39100
O726        O  0.48215421  0.32455172  0.82243349    -1.23800
O727        O  0.31701517  0.28333805  0.94749678    -0.86050
O728        O  0.36527121  0.29238031  0.95909775    -0.83100
C729        C  0.37075721  0.30804859  0.94226845     0.97410
O730        O  0.36179542  0.32965028  0.94291752    -0.83130
O731        O  0.33176951  0.36939365  0.95406600    -0.85780
C732        C  0.31336831  0.36669644  0.93968393     1.01930
O733        O  0.29763791  0.34971812  0.94336839    -0.78540
O734        O  0.28220156  0.30324480  0.95570364    -0.78730
C735        C  0.29545973  0.29000993  0.94111710     1.01880
O736        O  0.30331816  0.28129101  0.99992702    -0.86050
O737        O  0.35048110  0.29599661  0.01132050    -0.83110
C738        C  0.36960003  0.30950283  0.01234792     0.97430
O739        O  0.37453949  0.32452724  0.99489078    -0.83140
O740        O  0.33988753  0.35999749  0.00558577    -0.85750
C741        C  0.31902944  0.37031080  0.00881868     1.01900
O742        O  0.30043585  0.36447185  0.99535899    -0.78570
O743        O  0.28778485  0.31765632  0.00888505    -0.78720
C744        C  0.29249014  0.29561495  0.01521580     1.01860
Cr745      Cr  0.33327745  0.29044904  0.97929353     1.93740
Cr746      Cr  0.35017350  0.34427462  0.97444381     1.93210
Cr747      Cr  0.29412940  0.33274553  0.97591868     1.39100
O748        O  0.32569437  0.32254362  0.97644133    -1.23800
O749        O  0.67490345  0.31717016  0.94718447    -0.86050
O750        O  0.66281648  0.36424257  0.95884164    -0.83100
C751        C  0.64477395  0.36945979  0.94433626     0.97410
O752        O  0.62363949  0.35962571  0.94760254    -0.83130
O753        O  0.58684844  0.32723408  0.96248385    -0.85780
C754        C  0.58921595  0.31105206  0.94567972     1.01930
O755        O  0.60842947  0.29759809  0.94534609    -0.78540
O756        O  0.65589718  0.28178830  0.95404231    -0.78730
C757        C  0.66783914  0.29618360  0.93962111     1.01880
O758        O  0.67986678  0.30402533  0.00052507    -0.86050
O759        O  0.66470442  0.35110023  0.01171843    -0.83110
C760        C  0.64993145  0.36921013  0.01338484     0.97430
O761        O  0.63339235  0.37242570  0.99716075    -0.83140
O762        O  0.60241933  0.33470260  0.01250856    -0.85750
C763        C  0.59255050  0.31356833  0.01446818     1.01900
O764        O  0.59716199  0.29646075  0.99871718    -0.78570
O765        O  0.64492470  0.28417349  0.00759502    -0.78720
C766        C  0.66642292  0.29035327  0.01446021     1.01860
Cr767      Cr  0.66849985  0.33314272  0.97953882     1.93740
Cr768      Cr  0.61332626  0.34675522  0.97988062     1.93210
Cr769      Cr  0.62756036  0.29213211  0.97653356     1.39100
O770        O  0.63668072  0.32384893  0.97866781    -1.23800
O771        O  0.64809321  0.44819130  0.78434508    -0.86050
O772        O  0.59976110  0.46095848  0.79204621    -0.83100
C773        C  0.59204058  0.44688025  0.80941957     0.97410
O774        O  0.60056591  0.44873419  0.83112613    -0.83130
O775        O  0.63114463  0.46015364  0.86998943    -0.85780
C776        C  0.64807216  0.44395534  0.86758817     1.01930
O777        O  0.66414292  0.44579770  0.85066759    -0.78540
O778        O  0.68237883  0.45675551  0.80485421    -0.78730
C779        C  0.66954411  0.44205471  0.79153062     1.01880
O780        O  0.66245103  0.50065661  0.78117287    -0.86050
O781        O  0.61468993  0.51312390  0.79257567    -0.83110
C782        C  0.59552160  0.51561303  0.80587295     0.97430
O783        O  0.59066715  0.49989008  0.82264884    -0.83140
O784        O  0.62576550  0.51176286  0.85721273    -0.85750
C785        C  0.64633825  0.51416213  0.86821179     1.01900
O786        O  0.66355507  0.49830798  0.86445769    -0.78570
O787        O  0.67740630  0.50939952  0.81783465    -0.78720
C788        C  0.67282456  0.51588210  0.79592233     1.01860
Cr789      Cr  0.63196591  0.48059444  0.78975017     1.93740
Cr790      Cr  0.61393675  0.48007057  0.84371263     1.93210
Cr791      Cr  0.66979177  0.47761986  0.83338140     1.39100
O792        O  0.63861006  0.47920831  0.82218198    -1.23800
O793        O  0.67494234  0.64340491  0.00976934    -0.86050
O794        O  0.66270304  0.59602720  0.99858957    -0.83100
C795        C  0.64504636  0.59160371  0.01375159     0.97410
O796        O  0.62375920  0.60079097  0.01016474    -0.83130
O797        O  0.58773082  0.63419990  0.99869783    -0.85780
C798        C  0.59259892  0.65012878  0.01529757     1.01930
O799        O  0.61138506  0.66400493  0.01320076    -0.78540
O800        O  0.65810980  0.67908909  0.99995255    -0.78730
C801        C  0.66990765  0.66559453  0.01523073     1.01880
O802        O  0.67881560  0.65576849  0.95629955    -0.86050
O803        O  0.66370553  0.60859542  0.94583777    -0.83110
C804        C  0.64807090  0.59131201  0.94326401     0.97430
O805        O  0.63053518  0.58861390  0.95876808    -0.83140
O806        O  0.59902096  0.62700776  0.94702091    -0.85750
C807        C  0.58966112  0.64844225  0.94584367     1.01900
O808        O  0.59550274  0.66504701  0.96156776    -0.78570
O809        O  0.64343931  0.67455997  0.94791521    -0.78720
C810        C  0.66512337  0.66814220  0.94147995     1.01860
Cr811      Cr  0.66788359  0.62688107  0.97767664     1.93740
Cr812      Cr  0.61209602  0.61421160  0.97860058     1.93210
Cr813      Cr  0.62791226  0.66851510  0.98053110     1.39100
O814        O  0.63610997  0.63653282  0.97875951    -1.23800
O815        O  0.45879507  0.67531055  0.80176147    -0.86050
O816        O  0.44899743  0.66076702  0.84947748    -0.83100
C817        C  0.44894885  0.64742360  0.86871843     0.97410
O818        O  0.46545324  0.63077032  0.87160640    -0.83130
O819        O  0.45477782  0.59540438  0.83603409    -0.85780
C820        C  0.45249749  0.58551429  0.81486206     1.01930
O821        O  0.46609330  0.59231515  0.79673501    -0.78540
O822        O  0.45033958  0.63862786  0.78644220    -0.78730
C823        C  0.44342073  0.66025601  0.79201333     1.01880
O824        O  0.51226836  0.67364175  0.81459625    -0.86050
O825        O  0.50083012  0.66399945  0.86275213    -0.83110
C826        C  0.51735063  0.64809387  0.86839231     0.97430
O827        O  0.51723980  0.62675278  0.85863768    -0.83140
O828        O  0.50644330  0.58778335  0.82684285    -0.85750
C829        C  0.52045829  0.59108014  0.80817630     1.01900
O830        O  0.51733883  0.60948643  0.79406156    -0.78570
O831        O  0.50204944  0.65572267  0.77952570    -0.78720
C832        C  0.51778222  0.66731448  0.79276828     1.01860
Cr833      Cr  0.48041697  0.66635266  0.83120385     1.93740
Cr834      Cr  0.48583755  0.61185038  0.84658324     1.93210
Cr835      Cr  0.48394375  0.62499818  0.79124939     1.39100
O836        O  0.48331708  0.63435035  0.82298591    -1.23800
O837        O  0.30623752  0.67613166  0.00098706    -0.86050
O838        O  0.35422414  0.66236616  0.01301301    -0.83100
C839        C  0.37329523  0.64860901  0.01398466     0.97410
O840        O  0.37664180  0.63207470  0.99761300    -0.83130
O841        O  0.34055778  0.59798018  0.00825467    -0.85780
C842        C  0.31972185  0.58735973  0.01007939     1.01930
O843        O  0.30197701  0.59297291  0.99548368    -0.78540
O844        O  0.29005292  0.63964016  0.00890059    -0.78730
C845        C  0.29575094  0.66118602  0.01591721     1.01880
O846        O  0.32072018  0.67374590  0.94819465    -0.86050
O847        O  0.36852958  0.66465941  0.96092068    -0.83110
C848        C  0.37527017  0.64802423  0.94556005     0.97430
O849        O  0.36636839  0.62636239  0.94647119    -0.83140
O850        O  0.33412485  0.58799835  0.95655810    -0.85750
C851        C  0.31709239  0.59141369  0.94070479     1.01900
O852        O  0.30135942  0.60852974  0.94368886    -0.78570
O853        O  0.28552516  0.65489431  0.95663708    -0.78720
C854        C  0.29950634  0.66634580  0.94141444     1.01860
Cr855      Cr  0.33650176  0.66713266  0.98065674     1.93740
Cr856      Cr  0.35252356  0.61271957  0.97728069     1.93210
Cr857      Cr  0.29681198  0.62501674  0.97626783     1.39100
O858        O  0.32856581  0.63500584  0.97796737    -1.23800
O859        O  0.31972263  0.51081998  0.78404321    -0.86050
O860        O  0.36736487  0.49928577  0.79613881    -0.83100
C861        C  0.37326062  0.51362143  0.81405631     0.97410
O862        O  0.36308582  0.51143163  0.83509909    -0.83130
O863        O  0.32898970  0.49787227  0.87074694    -0.85780
C864        C  0.31328827  0.51486687  0.86656184     1.01930
O865        O  0.29866104  0.51311948  0.84838238    -0.78540
O866        O  0.28390100  0.50151005  0.80125947    -0.78730
C867        C  0.29749403  0.51641103  0.78895670     1.01880
O868        O  0.30684373  0.45823281  0.77916138    -0.86050
O869        O  0.35361185  0.44656434  0.79517666    -0.83110
C870        C  0.37213639  0.44509052  0.80944337     0.97430
O871        O  0.37517054  0.46093266  0.82647742    -0.83140
O872        O  0.33683987  0.44703946  0.85726325    -0.85750
C873        C  0.31532072  0.44421052  0.86632389     1.01900
O874        O  0.29846865  0.46029247  0.86203052    -0.78570
O875        O  0.28803286  0.44920923  0.81428107    -0.78720
C876        C  0.29382171  0.44354302  0.79233513     1.01860
Cr877      Cr  0.33601932  0.47880725  0.79071018     1.93740
Cr878      Cr  0.34925930  0.47934009  0.84577731     1.93210
Cr879      Cr  0.29444027  0.48103254  0.83074987     1.39100
O880        O  0.32649785  0.47989023  0.82225493    -1.23800
O881        O  0.68158880  0.95592828  0.65190823    -0.86050
O882        O  0.66520669  0.94569953  0.60487504    -0.83100
C883        C  0.64973719  0.94420385  0.58733905     0.97410
O884        O  0.63331964  0.96078334  0.58486753    -0.83130
O885        O  0.60341188  0.94440056  0.62268055    -0.85780
C886        C  0.59424730  0.94080015  0.64398360     1.01930
O887        O  0.59881591  0.95611199  0.66151976    -0.78540
O888        O  0.64695928  0.94660897  0.67177904    -0.78730
C889        C  0.66846657  0.94084840  0.66446341     1.01880
O890        O  0.67619349  0.00887085  0.64099010    -0.86050
O891        O  0.66292155  0.99896628  0.59366273    -0.83110
C892        C  0.64456590  0.01331711  0.58927297     0.97430
O893        O  0.62393801  0.01033413  0.60013362    -0.83140
O894        O  0.58803961  0.99394707  0.63268930    -0.85750
C895        C  0.59115334  0.01039765  0.64911222     1.01900
O896        O  0.61040305  0.00980306  0.66246564    -0.78570
O897        O  0.65817442  0.99977413  0.67655545    -0.78720
C898        C  0.67077321  0.01452179  0.66303846     1.01860
Cr899      Cr  0.66939867  0.97735732  0.62380124     1.93740
Cr900      Cr  0.61392198  0.97741589  0.61174642     1.93210
Cr901      Cr  0.62942443  0.97812599  0.66598294     1.39100
O902        O  0.63781009  0.97764426  0.63400520    -1.23800
O903        O  0.65675712  0.78111767  0.50236816    -0.86050
O904        O  0.60865309  0.79476132  0.51252953    -0.83100
C905        C  0.58887508  0.80742189  0.51263729     0.97410
O906        O  0.58507250  0.82323437  0.49572734    -0.83130
O907        O  0.62064581  0.85749902  0.50847748    -0.85780
C908        C  0.64138431  0.86802008  0.51158450     1.01930
O909        O  0.65920090  0.86381697  0.49639596    -0.78540
O910        O  0.67330071  0.81772878  0.50866866    -0.78730
C911        C  0.66873626  0.79610841  0.51615480     1.01880
O912        O  0.64413989  0.78182105  0.44923022    -0.86050
O913        O  0.59589887  0.79158359  0.45973237    -0.83110
C914        C  0.58956429  0.80813803  0.44404791     0.97430
O915        O  0.59849924  0.82979401  0.44500138    -0.83140
O916        O  0.62863930  0.86915606  0.45737583    -0.85750
C917        C  0.64543585  0.86593321  0.44119683     1.01900
O918        O  0.66079054  0.84850307  0.44370007    -0.78570
O919        O  0.67827622  0.80309477  0.45634631    -0.78720
C920        C  0.66540682  0.78897286  0.44241254     1.01860
Cr921      Cr  0.62716329  0.78946514  0.48080290     1.93740
Cr922      Cr  0.61008592  0.84336462  0.47670936     1.93210
Cr923      Cr  0.66577573  0.83231824  0.47633174     1.39100
O924        O  0.63448822  0.82155802  0.47786410    -1.23800
O925        O  0.50330453  0.80190265  0.67758926    -0.86050
O926        O  0.51488185  0.84881126  0.66179827    -0.83100
C927        C  0.51717502  0.86619374  0.64627917     0.97410
O928        O  0.50087659  0.86958400  0.62964675    -0.83130
O929        O  0.51196890  0.83164847  0.59755217    -0.85780
C930        C  0.51382159  0.81002743  0.58870110     1.01930
O931        O  0.49826217  0.79325690  0.59462994    -0.78540
O932        O  0.51260021  0.78414609  0.64205511    -0.78730
C933        C  0.51866346  0.79048747  0.66373151     1.01880
O934        O  0.45058741  0.81548442  0.67403391    -0.86050
O935        O  0.46311122  0.86296644  0.66228376    -0.83110
C936        C  0.44722981  0.86805321  0.64559514     0.97430
O937        O  0.44870878  0.85824109  0.62431041    -0.83140
O938        O  0.45981662  0.82428502  0.58759901    -0.85750
C939        C  0.44416675  0.80724326  0.59206276     1.01900
O940        O  0.44662045  0.79342631  0.61080690    -0.78570
O941        O  0.46043650  0.77954886  0.65769396    -0.78720
C942        C  0.44501512  0.79325124  0.66920440     1.01860
Cr943      Cr  0.48283033  0.83137311  0.66682627     1.93740
Cr944      Cr  0.48034669  0.84433953  0.61148019     1.93210
Cr945      Cr  0.47955110  0.78972364  0.62711632     1.39100
O946        O  0.48093458  0.82180556  0.63518548    -1.23800
O947        O  0.64219625  0.94809157  0.28397089    -0.86050
O948        O  0.59481771  0.96179147  0.29405606    -0.83100
C949        C  0.58880950  0.94628178  0.31082783     0.97410
O950        O  0.59785490  0.94784065  0.33236355    -0.83130
O951        O  0.63064508  0.95863986  0.36974293    -0.85780
C952        C  0.64629358  0.94157919  0.36562327     1.01930
O953        O  0.66175750  0.94372757  0.34807064    -0.78540
O954        O  0.67795824  0.95638931  0.30155618    -0.78730
C955        C  0.66406768  0.94167205  0.28938619     1.01880
O956        O  0.65767303  0.00018484  0.28037155    -0.86050
O957        O  0.61093917  0.01347483  0.29506596    -0.83110
C958        C  0.59238569  0.01582550  0.30920888     0.97430
O959        O  0.58784457  0.99984448  0.32583734    -0.83140
O960        O  0.62500670  0.01014060  0.35955092    -0.85750
C961        C  0.64630620  0.01118339  0.36942128     1.01900
O962        O  0.66328675  0.99582774  0.36340414    -0.78570
O963        O  0.67488621  0.00873035  0.31622287    -0.78720
C964        C  0.66957370  0.01505134  0.29431395     1.01860
Cr965      Cr  0.62721658  0.98077564  0.29048082     1.93740
Cr966      Cr  0.61203740  0.97910702  0.34517239     1.93210
Cr967      Cr  0.66737174  0.97632039  0.33148319     1.39100
O968        O  0.63560185  0.97881229  0.32234371    -1.23800
O969        O  0.30478734  0.77918174  0.45717174    -0.86050
O970        O  0.35247378  0.79330084  0.44641304    -0.83100
C971        C  0.37160986  0.80687253  0.44569126     0.97410
O972        O  0.37459057  0.82366826  0.46184663    -0.83130
O973        O  0.33856221  0.85713058  0.44819877    -0.85780
C974        C  0.31735680  0.86678896  0.44517595     1.01930
O975        O  0.29986338  0.86234688  0.46057560    -0.78540
O976        O  0.28816501  0.81519056  0.44828130    -0.78730
C977        C  0.29366909  0.79333735  0.44193001     1.01880
O978        O  0.31750442  0.78278179  0.51023380    -0.86050
O979        O  0.36527151  0.79267369  0.49914402    -0.83110
C980        C  0.37091468  0.80959872  0.51468699     0.97430
O981        O  0.36179323  0.83116387  0.51270232    -0.83140
O982        O  0.33008139  0.86909902  0.49935382    -0.85750
C983        C  0.31333057  0.86560690  0.51554537     1.01900
O984        O  0.29799385  0.84810689  0.51293209    -0.78570
O985        O  0.28249101  0.80150487  0.50075337    -0.78720
C986        C  0.29595428  0.78975525  0.51615489     1.01860
Cr987      Cr  0.33412409  0.78910140  0.47827191     1.93740
Cr988      Cr  0.34952388  0.84369045  0.48047663     1.93210
Cr989      Cr  0.29416348  0.83087849  0.48061352     1.39100
O990        O  0.32584966  0.82113518  0.47984392    -1.23800
O991        O  0.28880212  0.00910399  0.64075562    -0.86050
O992        O  0.30071908  0.99523949  0.59412261    -0.83100
C993        C  0.31870256  0.00950036  0.58804472     0.97410
O994        O  0.33972767  0.00748196  0.59836522    -0.83130
O995        O  0.37628926  0.99434853  0.63188324    -0.85780
C996        C  0.37374832  0.01172928  0.64748832     1.01930
O997        O  0.35469600  0.01208223  0.66120174    -0.78540
O998        O  0.30686848  0.00219507  0.67670031    -0.78730
C999        C  0.29500125  0.01635216  0.66211016     1.01880
O1000       O  0.28384906  0.95668887  0.65629924    -0.86050
O1001       O  0.29964601  0.94285190  0.61006337    -0.83110
C1002       C  0.31481059  0.94011068  0.59233572     0.97430
O1003       O  0.33075619  0.95677020  0.58806406    -0.83140
O1004       O  0.36185068  0.94382193  0.62642280    -0.85750
C1005       C  0.37121598  0.94237973  0.64784964     1.01900
O1006       O  0.36693194  0.95914859  0.66401451    -0.78570
O1007       O  0.31908116  0.94965534  0.67554507    -0.78720
C1008       C  0.29748225  0.94274832  0.66962756     1.01860
Cr1009     Cr  0.29528603  0.97606759  0.62621352     1.93740
Cr1010     Cr  0.35048431  0.97576940  0.61284387     1.93210
Cr1011     Cr  0.33598951  0.98068776  0.66723848     1.39100
O1012       O  0.32706693  0.97761389  0.63556004    -1.23800
O1013       O  0.45105712  0.81483183  0.28432952    -0.86050
O1014       O  0.46296809  0.86233601  0.29576219    -0.83100
C1015       C  0.44734594  0.86736662  0.31284293     0.97410
O1016       O  0.44938028  0.85771175  0.33406526    -0.83130
O1017       O  0.46085450  0.82443484  0.37051143    -0.85780
C1018       C  0.44524239  0.80707622  0.36744677     1.01930
O1019       O  0.44662945  0.79340420  0.34843865    -0.78540
O1020       O  0.46036213  0.77898496  0.30113574    -0.78730
C1021       C  0.44511361  0.79287390  0.28977611     1.01880
O1022       O  0.50446523  0.80145229  0.28107821    -0.86050
O1023       O  0.51539248  0.84904290  0.29607394    -0.83110
C1024       C  0.51639503  0.86764573  0.31034692     0.97430
O1025       O  0.50083456  0.86986827  0.32793219    -0.83140
O1026       O  0.51229733  0.83170182  0.36087898    -0.85750
C1027       C  0.51334902  0.81024819  0.37042244     1.01900
O1028       O  0.49842073  0.79319117  0.36376028    -0.78570
O1029       O  0.51232675  0.78346913  0.31679848    -0.78720
C1030       C  0.51936352  0.79017330  0.29553742     1.01860
Cr1031     Cr  0.48338055  0.83089383  0.29137262     1.93740
Cr1032     Cr  0.48095116  0.84428064  0.34654535     1.93210
Cr1033     Cr  0.47948315  0.78945373  0.33157095     1.39100
O1034       O  0.48139732  0.82151279  0.32310071    -1.23800
O1035       O  0.28614088  0.95443277  0.30395577    -0.86050
O1036       O  0.29961591  0.94470573  0.35155441    -0.83100
C1037       C  0.31395538  0.94273213  0.36992786     0.97410
O1038       O  0.33109063  0.95844932  0.37345686    -0.83130
O1039       O  0.36437007  0.94669788  0.33604670    -0.85780
C1040       C  0.37473018  0.94554371  0.31499235     1.01930
O1041       O  0.36934707  0.96116060  0.29816879    -0.80300
O1042       O  0.32247180  0.94693046  0.28686266    -0.78730
C1043       C  0.30066831  0.94000534  0.29195089     1.01880
O1044       O  0.28840734  0.00817951  0.31599806    -0.86050
O1045       O  0.29889353  0.99791842  0.36406835    -0.83110
C1046       C  0.31628211  0.01317084  0.36939034     0.97430
O1047       O  0.33802479  0.00966166  0.36132556    -0.83140
O1048       O  0.37523073  0.99834511  0.32912923    -0.85750
C1049       C  0.37142964  0.01466407  0.31259702     1.01900
O1050       O  0.35308815  0.01263123  0.29810924    -0.78570
O1051       O  0.30695991  0.99826159  0.28118289    -0.78720
C1052       C  0.29393296  0.01327611  0.29383092     1.01860
Cr1053     Cr  0.29542570  0.97642131  0.33312696     1.93740
Cr1054     Cr  0.35043445  0.97819036  0.34831459     1.93210
Cr1055     Cr  0.33704412  0.97970983  0.29330481     1.39100
O1056       O  0.32748924  0.97808656  0.32492173    -1.23800
O1057       O  0.51400920  0.17164875  0.63610473    -0.86050
O1058       O  0.49834824  0.16160379  0.58947896    -0.83100
C1059       C  0.51269670  0.14423843  0.58226458     0.97410
O1060       O  0.51178665  0.12302615  0.59222184    -0.83130
O1061       O  0.50244083  0.08607435  0.62661691    -0.85780
C1062       C  0.51845443  0.08908270  0.64368567     1.01930
O1063       O  0.51753069  0.10799017  0.65748553    -0.78540
O1064       O  0.50587627  0.15522792  0.67241015    -0.78730
C1065       C  0.52100633  0.16566526  0.65758844     1.01880
O1066       O  0.46201912  0.17653016  0.65336780    -0.86050
O1067       O  0.44725302  0.16160155  0.60731015    -0.83110
C1068       C  0.44406453  0.14715320  0.58917764     0.97430
O1069       O  0.45943085  0.12987908  0.58464164    -0.83140
O1070       O  0.45045555  0.09716812  0.62231005    -0.85750
C1071       C  0.44989232  0.08726796  0.64349344     1.01900
O1072       O  0.46545944  0.09342273  0.66015553    -0.78570
O1073       O  0.45330343  0.14088861  0.67095779    -0.78720
C1074       C  0.44731906  0.16289302  0.66593987     1.01860
Cr1075     Cr  0.48056232  0.16577089  0.62247335     1.93740
Cr1076     Cr  0.48119330  0.11074476  0.60817391     1.93210
Cr1077     Cr  0.48537733  0.12526570  0.66309035     1.39100
O1078       O  0.48240690  0.13393304  0.63124577    -1.23800
O1079       O  0.30270749  0.17576545  0.50046090    -0.86050
O1080       O  0.35022916  0.16199043  0.51221943    -0.83100
C1081       C  0.36848746  0.14749561  0.51472822     0.97410
O1082       O  0.37234766  0.13005066  0.49938234    -0.83130
O1083       O  0.33628169  0.09623786  0.51090341    -0.85780
C1084       C  0.31528274  0.08606895  0.51339327     1.01930
O1085       O  0.29712986  0.09227718  0.49961283    -0.78540
O1086       O  0.28716844  0.14004854  0.51220152    -0.78730
C1087       C  0.29273602  0.16222265  0.51703634     1.01880
O1088       O  0.31643129  0.16994217  0.44778714    -0.86050
O1089       O  0.36447403  0.16133122  0.46033180    -0.83110
C1090       C  0.37087910  0.14398073  0.44562781     0.97430
O1091       O  0.36134263  0.12266248  0.44755403    -0.83140
O1092       O  0.32856571  0.08551148  0.45929766    -0.85750
C1093       C  0.31041845  0.08854523  0.44459561     1.01900
O1094       O  0.29499550  0.10590826  0.44776565    -0.78570
O1095       O  0.28093224  0.15322066  0.45906902    -0.78720
C1096       C  0.29453259  0.16348758  0.44263387     1.01860
Cr1097     Cr  0.33256306  0.16515544  0.48016234     1.93740
Cr1098     Cr  0.34781138  0.11032991  0.47929909     1.93210
Cr1099     Cr  0.29214349  0.12383685  0.47971351     1.39100
O1100       O  0.32417053  0.13304606  0.47966690    -1.23800
O1101       O  0.68068180  0.15265645  0.50162449    -0.86050
O1102       O  0.66310433  0.10612271  0.51201306    -0.83100
C1103       C  0.64779086  0.08839330  0.51281656     0.97410
O1104       O  0.63186902  0.08583939  0.49567429    -0.83130
O1105       O  0.59906042  0.12336594  0.50684039    -0.85780
C1106       C  0.58997254  0.14492103  0.50873290     1.01930
O1107       O  0.59780267  0.16259699  0.49507795    -0.78540
O1108       O  0.64513765  0.17084954  0.50992682    -0.78730
C1109       C  0.66642074  0.16385965  0.51676418     1.01880
O1110       O  0.67823131  0.13958093  0.44876374    -0.86050
O1111       O  0.66517789  0.09229447  0.45982142    -0.83110
C1112       C  0.64822940  0.08722811  0.44410660     0.97430
O1113       O  0.62779765  0.09874388  0.44441365    -0.83140
O1114       O  0.59098094  0.13239315  0.45570439    -0.85750
C1115       C  0.59541975  0.15006341  0.44089948     1.01900
O1116       O  0.61459997  0.16329043  0.44348649    -0.78570
O1117       O  0.66161068  0.17562510  0.45761922    -0.78720
C1118       C  0.67266800  0.16137696  0.44231979     1.01860
Cr1119     Cr  0.66977709  0.12367361  0.48039752     1.93740
Cr1120     Cr  0.61426995  0.11169480  0.47575775     1.93210
Cr1121     Cr  0.63064674  0.16604423  0.47661674     1.39100
O1122       O  0.63824871  0.13388405  0.47766284    -1.23800
O1123       O  0.45011749  0.17352669  0.31815454    -0.86050
O1124       O  0.46301480  0.16292246  0.36555246    -0.83100
C1125       C  0.44942782  0.14475361  0.37249168     0.97410
O1126       O  0.45215589  0.12341664  0.36309195    -0.83130
O1127       O  0.46438599  0.08712538  0.32923486    -0.85780
C1128       C  0.44770425  0.09006643  0.31286803     1.01930
O1129       O  0.44797113  0.10904466  0.29913422    -0.78540
O1130       O  0.45926899  0.15597316  0.28258714    -0.78730
C1131       C  0.44431333  0.16818836  0.29616495     1.01880
O1132       O  0.50276755  0.17848427  0.30362139    -0.86050
O1133       O  0.51540881  0.16463654  0.35014791    -0.83110
C1134       C  0.51806236  0.15094034  0.36884033     0.97430
O1135       O  0.50344669  0.13289481  0.37261402    -0.83140
O1136       O  0.51592823  0.10093630  0.33459794    -0.85750
C1137       C  0.51708159  0.09096802  0.31339829     1.01900
O1138       O  0.50034055  0.09535872  0.29732297    -0.78570
O1139       O  0.51172606  0.14289313  0.28567182    -0.78720
C1140       C  0.51756959  0.16489940  0.29107270     1.01860
Cr1141     Cr  0.48273374  0.16773693  0.33356760     1.93740
Cr1142     Cr  0.48387711  0.11275295  0.34814683     1.93210
Cr1143     Cr  0.47988202  0.12669122  0.29334994     1.39100
O1144       O  0.48203312  0.13586517  0.32502267    -1.23800
O1145       O  0.01406269  0.31657159  0.67014098    -0.86050
O1146       O  0.99867486  0.36330710  0.66061576    -0.83100
C1147       C  0.01351872  0.36918812  0.64324745     0.97410
O1148       O  0.01112315  0.35994641  0.62181678    -0.83130
O1149       O  0.00068531  0.32587962  0.58517551    -0.85780
C1150       C  0.01708426  0.30926144  0.58832277     1.01930
O1151       O  0.01643108  0.29540252  0.60726719    -0.78540
O1152       O  0.00484631  0.28014673  0.65481632    -0.78730
C1153       C  0.02037604  0.29471082  0.66486941     1.01880
O1154       O  0.96164027  0.30031680  0.67632298    -0.86050
O1155       O  0.94782602  0.34747732  0.66320396    -0.83110
C1156       C  0.94450346  0.36547762  0.64862806     0.97430
O1157       O  0.95836226  0.36797407  0.62957217    -0.83140
O1158       O  0.94895761  0.32997392  0.59573708    -0.85750
C1159       C  0.94831434  0.30812999  0.58699058     1.01900
O1160       O  0.96434957  0.29205150  0.59339642    -0.78570
O1161       O  0.95217583  0.28237069  0.64103365    -0.78720
C1162       C  0.94590895  0.28942063  0.66247045     1.01860
Cr1163     Cr  0.98059724  0.33083164  0.66539389     1.93740
Cr1164     Cr  0.97981544  0.34438026  0.60992046     1.93210
Cr1165     Cr  0.98432111  0.28965199  0.62502990     1.39100
O1166       O  0.98122625  0.32164893  0.63342373    -1.23800
O1167       O  0.78852671  0.31524045  0.50875822    -0.86050
O1168       O  0.80203632  0.36274643  0.50019630    -0.83100
C1169       C  0.82013509  0.36705849  0.51484053     0.97410
O1170       O  0.84069721  0.35597880  0.51205956    -0.83130
O1171       O  0.87678146  0.32351286  0.49560659    -0.85780
C1172       C  0.87425087  0.30580452  0.51063282     1.01930
O1173       O  0.85469749  0.29277807  0.50998004    -0.78540
O1174       O  0.80624288  0.27969422  0.49974765    -0.78730
C1175       C  0.79389002  0.29323778  0.51467223     1.01880
O1176       O  0.78378974  0.30571153  0.45505861    -0.86050
O1177       O  0.80050121  0.35308474  0.44699600    -0.83110
C1178       C  0.81605562  0.37063675  0.44635119     0.97430
O1179       O  0.83269824  0.37198387  0.46275770    -0.83140
O1180       O  0.86393394  0.33428929  0.44627509    -0.85750
C1181       C  0.87259998  0.31266218  0.44306870     1.01900
O1182       O  0.86608598  0.29467988  0.45699710    -0.78570
O1183       O  0.81820699  0.28536554  0.44636094    -0.78720
C1184       C  0.79717048  0.29340255  0.43995040     1.01860
Cr1185     Cr  0.79588768  0.33307090  0.47776737     1.93740
Cr1186     Cr  0.85156871  0.34473811  0.47910767     1.93210
Cr1187     Cr  0.83532917  0.29036027  0.47834174     1.39100
O1188       O  0.82745236  0.32257015  0.47826951    -1.23800
O1189       O  0.78300852  0.50009288  0.65306069    -0.86050
O1190       O  0.80061856  0.51161827  0.60708574    -0.83100
C1191       C  0.81647863  0.51409546  0.58997952     0.97410
O1192       O  0.83361033  0.49817452  0.58745253    -0.83130
O1193       O  0.86335585  0.51182088  0.62618613    -0.85780
C1194       C  0.87254445  0.51375558  0.64760094     1.01930
O1195       O  0.86579960  0.49918498  0.66505134    -0.78540
O1196       O  0.81706235  0.50952917  0.67357507    -0.78730
C1197       C  0.79562815  0.51526701  0.66609795     1.01880
O1198       O  0.78983377  0.44684173  0.64001644    -0.86050
O1199       O  0.80311124  0.45924085  0.59336809    -0.83110
C1200       C  0.82144364  0.44496744  0.58870284     0.97430
O1201       O  0.84175334  0.44748596  0.60014204    -0.83140
O1202       O  0.87639545  0.46109703  0.63478526    -0.85750
C1203       C  0.87288287  0.44525023  0.65176585     1.01900
O1204       O  0.85338183  0.44621225  0.66477295    -0.78570
O1205       O  0.80504481  0.45593381  0.67665816    -0.78720
C1206       C  0.79537761  0.44030682  0.66177871     1.01860
Cr1207     Cr  0.79612431  0.47941752  0.62450012     1.93740
Cr1208     Cr  0.85193005  0.47958545  0.61378854     1.93210
Cr1209     Cr  0.83449809  0.47782381  0.66785496     1.39100
O1210       O  0.82741390  0.47900653  0.63548318    -1.23800
O1211       O  0.00469930  0.28236992  0.30075009    -0.86050
O1212       O  0.01719331  0.29717674  0.34736681    -0.83100
C1213       C  0.01876990  0.31072369  0.36635639     0.97410
O1214       O  0.00248084  0.32719140  0.37054730    -0.83130
O1215       O  0.01328453  0.36076377  0.33391555    -0.85780
C1216       C  0.01509130  0.37052848  0.31268918     1.01930
O1217       O  0.99919266  0.36554205  0.29587897    -0.78540
O1218       O  0.01198634  0.31839233  0.28354346    -0.78730
C1219       C  0.01938867  0.29697271  0.28939817     1.01880
O1220       O  0.95208699  0.28485530  0.31566100    -0.86050
O1221       O  0.96489316  0.29546615  0.36304223    -0.83110
C1222       C  0.94968214  0.31241164  0.36961432     0.97430
O1223       O  0.95075613  0.33387602  0.36026903    -0.83140
O1224       O  0.96171760  0.37199643  0.32790650    -0.85750
C1225       C  0.94575843  0.36907004  0.31088214     1.01900
O1226       O  0.94696662  0.35039281  0.29677429    -0.78570
O1227       O  0.95949824  0.30382444  0.28042069    -0.78720
C1228       C  0.94522495  0.29090330  0.29412169     1.01860
Cr1229     Cr  0.98452790  0.29212694  0.33091038     1.93740
Cr1230     Cr  0.98200317  0.34679253  0.34639264     1.93210
Cr1231     Cr  0.97950466  0.33359936  0.29123697     1.39100
O1232       O  0.98190059  0.32408477  0.32276378    -1.23800
O1233       O  0.78607237  0.64057754  0.44974529    -0.86050
O1234       O  0.80096187  0.59407870  0.45987680    -0.83100
C1235       C  0.81813678  0.59050148  0.44379968     0.97410
O1236       O  0.83916176  0.60058225  0.44660533    -0.83130
O1237       O  0.87453440  0.63521278  0.45841603    -0.85780
C1238       C  0.86961254  0.65109230  0.44175131     1.01930
O1239       O  0.85023546  0.66418028  0.44361305    -0.78540
O1240       O  0.80267604  0.67712942  0.45684078    -0.78730
C1241       C  0.79099425  0.66233097  0.44272180     1.01880
O1242       O  0.78323735  0.65349769  0.50225153    -0.86050
O1243       O  0.80149344  0.60771006  0.51309423    -0.83110
C1244       C  0.81730248  0.59052413  0.51465535     0.97430
O1245       O  0.83327516  0.58774966  0.49760520    -0.83140
O1246       O  0.86310560  0.62715011  0.51003334    -0.85750
C1247       C  0.87136708  0.64898756  0.51200617     1.01900
O1248       O  0.86568117  0.66548433  0.49599248    -0.78570
O1249       O  0.81783557  0.67415769  0.50869135    -0.78720
C1250       C  0.79683440  0.66683134  0.51618814     1.01860
Cr1251     Cr  0.79499687  0.62489507  0.48114212     1.93740
Cr1252     Cr  0.85077343  0.61422421  0.47821192     1.93210
Cr1253     Cr  0.83337994  0.66807675  0.47635342     1.39100
O1254       O  0.82619401  0.63584262  0.47848926    -1.23800
O1255       O  0.95147846  0.64513602  0.67205058    -0.86050
O1256       O  0.96152073  0.59697562  0.66254128    -0.83100
C1257       C  0.94601717  0.59095546  0.64579741     0.97410
O1258       O  0.94751822  0.59993711  0.62420304    -0.83130
O1259       O  0.95915687  0.63154013  0.58564936    -0.85780
C1260       C  0.94445877  0.64964847  0.58906250     1.01930
O1261       O  0.94737156  0.66411977  0.60722178    -0.78540
O1262       O  0.96130240  0.67990652  0.65324647    -0.78730
C1263       C  0.94623083  0.66713884  0.66625975     1.01880
O1264       O  0.00457055  0.65695418  0.67426907    -0.86050
O1265       O  0.01399997  0.60866449  0.66099276    -0.83110
C1266       C  0.01521380  0.58981200  0.64718789     0.97430
O1267       O  0.99921731  0.58708620  0.63000086    -0.83140
O1268       O  0.01080588  0.62275506  0.59543927    -0.85750
C1269       C  0.01373379  0.64386872  0.58564618     1.01900
O1270       O  0.99906003  0.66164606  0.59101337    -0.78570
O1271       O  0.01360467  0.67287111  0.63787683    -0.78720
C1272       C  0.02013117  0.66685006  0.65952348     1.01860
Cr1273     Cr  0.98278051  0.62781150  0.66518899     1.93740
Cr1274     Cr  0.97925706  0.61209220  0.61051476     1.93210
Cr1275     Cr  0.98036515  0.66749973  0.62332260     1.39100
O1276       O  0.98083177  0.63582243  0.63305100    -1.23800
O1277       O  0.78574190  0.44812718  0.31789685    -0.86050
O1278       O  0.79767691  0.46105908  0.36473147    -0.83100
C1279       C  0.81565720  0.44654531  0.36997933     0.97410
O1280       O  0.83633541  0.44889014  0.35908953    -0.83130
O1281       O  0.87260166  0.46103593  0.32567061    -0.85780
C1282       C  0.86877884  0.44402285  0.30988683     1.01930
O1283       O  0.84989718  0.44506680  0.29607600    -0.78540
O1284       O  0.80251285  0.45556909  0.28165190    -0.78730
C1285       C  0.79126158  0.44090873  0.29638475     1.01880
O1286       O  0.78029148  0.50033592  0.30309036    -0.86050
O1287       O  0.79591015  0.51309720  0.34990684    -0.83110
C1288       C  0.81121157  0.51571548  0.36743374     0.97430
O1289       O  0.82855798  0.50015337  0.37058203    -0.83140
O1290       O  0.85971224  0.51223654  0.33220521    -0.85750
C1291       C  0.86885151  0.51380873  0.31067453     1.01900
O1292       O  0.86347600  0.49778081  0.29407043    -0.78570
O1293       O  0.81525304  0.50861418  0.28335287    -0.78720
C1294       C  0.79357205  0.51476860  0.28985385     1.01860
Cr1295     Cr  0.79200375  0.48062864  0.33287961     1.93740
Cr1296     Cr  0.84751033  0.48051473  0.34525873     1.93210
Cr1297     Cr  0.83195556  0.47694446  0.29092665     1.39100
O1298       O  0.82368176  0.47959034  0.32292022    -1.23800
O1299       O  0.96042415  0.67267104  0.30008854    -0.86050
O1300       O  0.94823125  0.66089679  0.34762692    -0.83100
C1301       C  0.94602286  0.64793686  0.36695916     0.97410
O1302       O  0.96104464  0.63028027  0.37117081    -0.83130
O1303       O  0.94951926  0.59549970  0.33506047    -0.85780
C1304       C  0.94835707  0.58472561  0.31422779     1.01930
O1305       O  0.96427449  0.58941208  0.29743077    -0.78540
O1306       O  0.95123129  0.63614965  0.28482733    -0.78730
C1307       C  0.94499375  0.65822609  0.28953360     1.01880
O1308       O  0.01315239  0.66921885  0.31397007    -0.86050
O1309       O  0.00071156  0.66097635  0.36208335    -0.83110
C1310       C  0.01511061  0.64363835  0.36927852     0.97430
O1311       O  0.01278631  0.62180569  0.36108476    -0.83140
O1312       O  0.00131447  0.58357679  0.32947894    -0.85750
C1313       C  0.01742900  0.58623847  0.31243379     1.01900
O1314       O  0.01591665  0.60417070  0.29740093    -0.78570
O1315       O  0.00331746  0.65023744  0.27932951    -0.78720
C1316       C  0.01834525  0.66329899  0.29193366     1.01860
Cr1317     Cr  0.98074698  0.66372944  0.33025325     1.93740
Cr1318     Cr  0.98117179  0.60941368  0.34742887     1.93210
Cr1319     Cr  0.98364331  0.62100653  0.29188992     1.39100
O1320       O  0.98196451  0.63145220  0.32320766    -1.23800
O1321       O  0.17367707  0.44751264  0.63907043    -0.86050
O1322       O  0.16094621  0.46090993  0.59289225    -0.83100
C1323       C  0.14398914  0.44496193  0.58861623     0.97410
O1324       O  0.12296542  0.44711320  0.59896737    -0.83130
O1325       O  0.08659079  0.45889755  0.63300675    -0.85780
C1326       C  0.09071790  0.44261894  0.64940519     1.01930
O1327       O  0.10989209  0.44396243  0.66286956    -0.78540
O1328       O  0.15787668  0.45527337  0.67585640    -0.78730
C1329       C  0.16865817  0.44052221  0.66078527     1.01880
O1330       O  0.17866754  0.49953937  0.65442228    -0.86050
O1331       O  0.16152908  0.51274808  0.60854396    -0.83110
C1332       C  0.14609629  0.51501060  0.59110012     0.97430
O1333       O  0.12945150  0.49873145  0.58767067    -0.83140
O1334       O  0.09775328  0.51004582  0.62594371    -0.85750
C1335       C  0.08900970  0.51160343  0.64763776     1.01900
O1336       O  0.09578342  0.49654790  0.66460518    -0.78570
O1337       O  0.14371881  0.50872269  0.67328766    -0.78720
C1338       C  0.16517170  0.51495419  0.66613953     1.01860
Cr1339     Cr  0.16665989  0.48015516  0.62470629     1.93740
Cr1340     Cr  0.11100483  0.47865057  0.61294327     1.93210
Cr1341     Cr  0.12764821  0.47624426  0.66717100     1.39100
O1342       O  0.13513012  0.47842705  0.63504098    -1.23800
O1343       O  0.18076258  0.65219004  0.50053965    -0.86050
O1344       O  0.16419754  0.60592949  0.51181077    -0.83100
C1345       C  0.14920874  0.58811333  0.51382617     0.97410
O1346       O  0.13260938  0.58478160  0.49760669    -0.83130
O1347       O  0.10211043  0.62328897  0.51136400    -0.85780
C1348       C  0.09302713  0.64481147  0.51370299     1.01930
O1349       O  0.09808056  0.66179122  0.49793345    -0.78540
O1350       O  0.14619476  0.67275913  0.50796168    -0.78730
C1351       C  0.16754027  0.66574730  0.51470448     1.01880
O1352       O  0.17614218  0.63890199  0.44777670    -0.86050
O1353       O  0.16314070  0.59224890  0.45930361    -0.83110
C1354       C  0.14566124  0.58805945  0.44389009     0.97430
O1355       O  0.12455312  0.59795083  0.44700972    -0.83140
O1356       O  0.08834710  0.63093160  0.46127448    -0.85750
C1357       C  0.09146359  0.64685822  0.44433561     1.01900
O1358       O  0.11059855  0.66040542  0.44466216    -0.78570
O1359       O  0.15820535  0.67477889  0.45449298    -0.78720
C1360       C  0.17021360  0.66019491  0.44025955     1.01860
Cr1361     Cr  0.16898034  0.62330509  0.47981898     1.93740
Cr1362     Cr  0.11367683  0.61084832  0.47922985     1.93210
Cr1363     Cr  0.12913700  0.66528238  0.47638439     1.39100
O1364       O  0.13744452  0.63331447  0.47857235    -1.23800
O1365       O  0.17683317  0.31750757  0.44777937    -0.86050
O1366       O  0.16501950  0.36470025  0.46084467    -0.83100
C1367       C  0.14830997  0.36953400  0.44487951     0.97410
O1368       O  0.12686455  0.36001688  0.44654142    -0.83130
O1369       O  0.08952869  0.32680967  0.45834435    -0.85780
C1370       C  0.09331157  0.30985310  0.44246431     1.01930
O1371       O  0.11244073  0.29641853  0.44387253    -0.78540
O1372       O  0.15934406  0.28167841  0.45632813    -0.78730
C1373       C  0.17153652  0.29554704  0.44163022     1.01880
O1374       O  0.18061539  0.30305458  0.50001614    -0.86050
O1375       O  0.16466733  0.34984455  0.51263687    -0.83110
C1376       C  0.14968070  0.36778290  0.51465008     0.97430
O1377       O  0.13312181  0.37146807  0.49835678    -0.83140
O1378       O  0.10067758  0.33386255  0.50996631    -0.85750
C1379       C  0.09197635  0.31217723  0.51199282     1.01900
O1380       O  0.09747884  0.29545701  0.49619693    -0.78570
O1381       O  0.14503548  0.28490287  0.50842592    -0.78720
C1382       C  0.16705743  0.29014108  0.51444196     1.01860
Cr1383     Cr  0.16963705  0.33289926  0.48022407     1.93740
Cr1384     Cr  0.11427151  0.34643278  0.47825489     1.93210
Cr1385     Cr  0.12936123  0.29180263  0.47629962     1.39100
O1386       O  0.13783995  0.32364425  0.47835285    -1.23800
O1387       O  0.18073867  0.50082687  0.30306097    -0.86050
O1388       O  0.16475853  0.51135540  0.35031654    -0.83100
C1389       C  0.14911816  0.51300215  0.36774457     0.97410
O1390       O  0.13243673  0.49667736  0.37063427    -0.83130
O1391       O  0.09996944  0.50743387  0.33288898    -0.85780
C1392       C  0.09127942  0.50942147  0.31124396     1.01930
O1393       O  0.09790975  0.49470077  0.29402529    -0.78540
O1394       O  0.14520220  0.50895414  0.28481604    -0.78730
C1395       C  0.16652177  0.51583593  0.29166553     1.01880
O1396       O  0.17765138  0.44782006  0.31639574    -0.86050
O1397       O  0.16580616  0.45964796  0.36368002    -0.83110
C1398       C  0.14890798  0.44406447  0.36918076     0.97430
O1399       O  0.12774999  0.44509211  0.35908354    -0.83140
O1400       O  0.09074912  0.45600316  0.32534910    -0.85750
C1401       C  0.09482495  0.44081678  0.30792364     1.01900
O1402       O  0.11355952  0.44316867  0.29397806    -0.78570
O1403       O  0.16078710  0.45636574  0.28051480    -0.78720
C1404       C  0.17219622  0.44126791  0.29461893     1.01860
Cr1405     Cr  0.17009715  0.47976529  0.33230949     1.93740
Cr1406     Cr  0.11455437  0.47633645  0.34528554     1.93210
Cr1407     Cr  0.13029328  0.47589167  0.29051355     1.39100
O1408       O  0.13833986  0.47740933  0.32267790    -1.23800
O1409       O  0.19418041  0.16504282  0.82455016    -0.86050
O1410       O  0.20414038  0.13419759  0.78447186    -0.83100
C1411       C  0.18447494  0.12298276  0.77766527     0.97410
O1412       O  0.16687147  0.13486857  0.76751746    -0.83130
O1413       O  0.13627005  0.17538220  0.75793781    -0.85780
C1414       C  0.12525216  0.18086029  0.77807398     1.01930
O1415       O  0.13715201  0.19063388  0.79587934    -0.78540
O1416       O  0.17813393  0.20264351  0.82574194    -0.78730
C1417       C  0.18505205  0.18297871  0.83663845     1.01880
O1418       O  0.22444759  0.20342110  0.80292856    -0.86050
O1419       O  0.23120648  0.17455425  0.76186860    -0.83110
C1420       C  0.22652718  0.16435835  0.74132045     0.97430
O1421       O  0.20501560  0.15593240  0.73673976    -0.83140
O1422       O  0.17651417  0.19807771  0.73076211    -0.85750
C1423       C  0.16643156  0.21855058  0.73625403     1.01900
O1424       O  0.15680923  0.22193908  0.75742218    -0.78570
O1425       O  0.19879192  0.22915140  0.78427885    -0.78720
C1426       C  0.21978497  0.22451632  0.79358276     1.01860
Cr1427     Cr  0.21121909  0.17010763  0.79231453     1.93740
Cr1428     Cr  0.17200618  0.16725695  0.75049481     1.93210
Cr1429     Cr  0.16888183  0.20877299  0.79001542     1.39100
O1430       O  0.18385457  0.18177446  0.77782136    -1.23800
O1431       O  0.28877051  0.13124361  0.69998906    -0.86050
O1432       O  0.32990176  0.16157368  0.69039324    -0.83100
C1433       C  0.34215524  0.17951647  0.68128983     0.97410
O1434       O  0.33138383  0.19973979  0.67581514    -0.83130
O1435       O  0.30167771  0.18980242  0.63509202    -0.85780
C1436       C  0.28393007  0.18101840  0.62241997     1.01930
O1437       O  0.26346726  0.17521760  0.63276964    -0.78540
O1438       O  0.27364489  0.13401750  0.66209055    -0.78730
C1439       C  0.28282330  0.12127259  0.67949550     1.01880
O1440       O  0.26734732  0.17196349  0.72772183    -0.86050
O1441       O  0.30901733  0.19917739  0.72232290    -0.83110
C1442       C  0.29963640  0.22045189  0.71884745     0.97430
O1443       O  0.29055388  0.22636893  0.69804783    -0.83140
O1444       O  0.26290971  0.22090198  0.65541905    -0.85750
C1445       C  0.24132998  0.21653655  0.66392138     1.01900
O1446       O  0.23638489  0.19599749  0.67399105    -0.78570
O1447       O  0.24226888  0.15381028  0.70120015    -0.78720
C1448       C  0.24632917  0.16309295  0.72247704     1.01860
Cr1449     Cr  0.29769124  0.16679698  0.70787075     1.93740
Cr1450     Cr  0.29576245  0.20704556  0.66715372     1.93210
Cr1451     Cr  0.25615073  0.16575378  0.66840823     1.39100
O1452       O  0.28337845  0.17971403  0.68099288    -1.23800
O1453       O  0.13885936  0.26755265  0.65794469    -0.86050
O1454       O  0.18066274  0.25670593  0.62952280    -0.83100
C1455       C  0.18668940  0.27686482  0.61892365     0.97410
O1456       O  0.19475050  0.29483919  0.63162935    -0.83130
O1457       O  0.20312229  0.32520380  0.67233538    -0.85780
C1458       C  0.18261845  0.33523081  0.67854957     1.01930
O1459       O  0.16522038  0.32255826  0.68803144    -0.78540
O1460       O  0.13552280  0.28114443  0.69643679    -0.78730
C1461       C  0.12580028  0.27614671  0.67551159     1.01880
O1462       O  0.15753714  0.23568936  0.69681676    -0.86050
O1463       O  0.20054109  0.23015614  0.67125799    -0.83110
C1464       C  0.22168463  0.23540309  0.66256820     0.97430
O1465       O  0.22593694  0.25661257  0.65315521    -0.83140
O1466       O  0.23086052  0.28497677  0.69441590    -0.85750
C1467       C  0.22548244  0.29461677  0.71501972     1.01900
O1468       O  0.20361658  0.30241928  0.71941387    -0.78570
O1469       O  0.17607703  0.25951208  0.72424972    -0.78720
C1470       C  0.16657291  0.23892879  0.71825587     1.01860
Cr1471     Cr  0.17039063  0.24973556  0.66474474     1.93740
Cr1472     Cr  0.21144505  0.28954441  0.66392166     1.93210
Cr1473     Cr  0.17104680  0.29037864  0.70491223     1.39100
O1474       O  0.18418775  0.27678301  0.67773847    -1.23800
O1475       O  0.26100538  0.28654344  0.82397168    -0.86050
O1476       O  0.27162776  0.32670354  0.79339783    -0.83100
C1477       C  0.28097443  0.33884300  0.77557037     0.97410
O1478       O  0.28743625  0.32790565  0.75575501    -0.83130
O1479       O  0.32803861  0.29780269  0.76691177    -0.85780
C1480       C  0.34038260  0.27983879  0.77581398     1.01930
O1481       O  0.32937167  0.26004475  0.78238927    -0.78540
O1482       O  0.29842157  0.26987547  0.82291415    -0.78730
C1483       C  0.28060395  0.27946011  0.83505563     1.01880
O1484       O  0.23415947  0.26444612  0.78325744    -0.86050
O1485       O  0.24071865  0.30573999  0.75499095    -0.83110
C1486       C  0.24501585  0.29596415  0.73401703     0.97430
O1487       O  0.26604903  0.28674671  0.72918762    -0.83140
O1488       O  0.30818145  0.25987280  0.73557193    -0.85750
C1489       C  0.29915849  0.23852294  0.73915900     1.01900
O1490       O  0.28926969  0.23291711  0.75971569    -0.78570
O1491       O  0.26049100  0.23923529  0.80163955    -0.78720
C1492       C  0.23907313  0.24373719  0.79296888     1.01860
Cr1493     Cr  0.25419619  0.29472789  0.78808596     1.93740
Cr1494     Cr  0.29625033  0.29228518  0.74915923     1.93210
Cr1495     Cr  0.29352782  0.25279421  0.79054684     1.39100
O1496       O  0.28151302  0.28009790  0.77617903    -1.23800
O1497       O  0.14541971  0.78390825  0.00762575    -0.86050
O1498       O  0.09761291  0.79406388  0.99521241    -0.83100
C1499       C  0.09124164  0.81081125  0.01063381     0.97410
O1500       O  0.10059758  0.83224816  0.00978038    -0.83130
O1501       O  0.13223423  0.87049980  0.99903871    -0.85780
C1502       C  0.14913325  0.86697771  0.01498583     1.01930
O1503       O  0.16436479  0.84935981  0.01249965    -0.78540
O1504       O  0.18055014  0.80311430  0.99974436    -0.78730
C1505       C  0.16700292  0.79028769  0.01430654     1.01880
O1506       O  0.15963367  0.78204957  0.95488665    -0.86050
O1507       O  0.11221694  0.79632894  0.94303209    -0.83110
C1508       C  0.09294573  0.80970073  0.94204258     0.97430
O1509       O  0.08908543  0.82614253  0.95840753    -0.83140
O1510       O  0.12578905  0.86016492  0.94754043    -0.85750
C1511       C  0.14672930  0.87072875  0.94588970     1.01900
O1512       O  0.16425119  0.86503205  0.96073659    -0.78570
O1513       O  0.17639967  0.81825105  0.94726630    -0.78720
C1514       C  0.17027306  0.79689748  0.93994478     1.01860
Cr1515     Cr  0.12956668  0.79120131  0.97535230     1.93740
Cr1516     Cr  0.11374940  0.84561041  0.97861337     1.93210
Cr1517     Cr  0.16931730  0.83294863  0.97994301     1.39100
O1518       O  0.13763083  0.82319128  0.97805017    -1.23800
O1519       O  0.14789125  0.94891544  0.78506930    -0.86050
O1520       O  0.10017942  0.95912749  0.79661579    -0.83100
C1521       C  0.09482379  0.94499430  0.81491880     0.97410
O1522       O  0.10419238  0.94886609  0.83608789    -0.83130
O1523       O  0.13574638  0.96486413  0.87277058    -0.85780
C1524       C  0.15074764  0.94703056  0.87020199     1.01930
O1525       O  0.16553819  0.94693877  0.85196325    -0.78540
O1526       O  0.18268086  0.95630574  0.80497712    -0.78730
C1527       C  0.16923041  0.94200364  0.79192951     1.01880
O1528       O  0.15977051  0.00238721  0.78075076    -0.86050
O1529       O  0.11224983  0.01279388  0.79496180    -0.83110
C1530       C  0.09307463  0.01393906  0.80844190     0.97430
O1531       O  0.09011185  0.99840342  0.82571079    -0.83140
O1532       O  0.12827959  0.01434310  0.85678759    -0.85750
C1533       C  0.14935572  0.01629235  0.86708696     1.01900
O1534       O  0.16633436  0.00021769  0.86322259    -0.78570
O1535       O  0.17923135  0.00966218  0.81584475    -0.78720
C1536       C  0.17263789  0.01670054  0.79448824     1.01860
Cr1537     Cr  0.13092209  0.98080479  0.79146769     1.93740
Cr1538     Cr  0.11629853  0.98158587  0.84612903     1.93210
Cr1539     Cr  0.17132953  0.97833315  0.83300837     1.39100
O1540       O  0.13968244  0.98020724  0.82328045    -1.23800
O1541       O  0.80457249  0.95569734  0.17577709    -0.86050
O1542       O  0.85187531  0.94450181  0.16277626    -0.83100
C1543       C  0.87118324  0.94310028  0.14962218     0.97410
O1544       O  0.87521191  0.95900506  0.13285596    -0.83130
O1545       O  0.83847698  0.94577681  0.09975143    -0.85780
C1546       C  0.81840488  0.94498922  0.08761754     1.01930
O1547       O  0.80074695  0.96006496  0.09255604    -0.78540
O1548       O  0.78746863  0.94810974  0.13961735    -0.78730
C1549       C  0.79366256  0.94078631  0.16098046     1.01880
O1550       O  0.81833923  0.00891437  0.17256183    -0.86050
O1551       O  0.86621318  0.99749539  0.16292076    -0.83110
C1552       C  0.87253677  0.01195743  0.14516719     0.97430
O1553       O  0.86280346  0.00967018  0.12401535    -0.83140
O1554       O  0.83186040  0.99609182  0.08628259    -0.85750
C1555       C  0.81654167  0.01363383  0.08912442     1.01900
O1556       O  0.80107453  0.01271332  0.10682588    -0.78570
O1557       O  0.78330525  0.00061539  0.15334294    -0.78720
C1558       C  0.79698586  0.01542359  0.16558702     1.01860
Cr1559     Cr  0.83440608  0.97675361  0.16653138     1.93740
Cr1560     Cr  0.85040977  0.97764233  0.11234902     1.93210
Cr1561     Cr  0.79507575  0.98030592  0.12409806     1.39100
O1562       O  0.82649813  0.97824361  0.13450047    -1.23800
O1563       O  0.95351179  0.78427498  0.13941604    -0.86050
O1564       O  0.96496299  0.79667031  0.09248593    -0.83100
C1565       C  0.94816813  0.81276670  0.08829844     0.97410
O1566       O  0.94925735  0.83400870  0.09816369    -0.83130
O1567       O  0.96058872  0.87141999  0.13107813    -0.85780
C1568       C  0.94509433  0.86692374  0.14819862     1.01930
O1569       O  0.94737164  0.84785497  0.16154687    -0.78540
O1570       O  0.96116270  0.80124101  0.17542984    -0.78730
C1571       C  0.94676429  0.78897531  0.16123001     1.01880
O1572       O  0.00626187  0.78205581  0.15304008    -0.86050
O1573       O  0.01701641  0.79862201  0.10626171    -0.83110
C1574       C  0.01730466  0.81240568  0.08738517     0.97430
O1575       O  0.00109323  0.82943164  0.08508242    -0.83140
O1576       O  0.01195356  0.86298531  0.12283894    -0.85750
C1577       C  0.01350462  0.87201052  0.14449761     1.01900
O1578       O  0.99923091  0.86455690  0.16189342    -0.78570
O1579       O  0.01363396  0.81760987  0.17151128    -0.78720
C1580       C  0.02084673  0.79642041  0.16474364     1.01860
Cr1581     Cr  0.98532635  0.79254652  0.12380059     1.93740
Cr1582     Cr  0.98087898  0.84766634  0.11085159     1.93210
Cr1583     Cr  0.98048911  0.83198040  0.16549729     1.39100
O1584       O  0.98247766  0.82406323  0.13347715    -1.23800
O1585       O  0.80283763  0.00049501  0.78196273    -0.86050
O1586       O  0.85000769  0.01353371  0.79518945    -0.83100
C1587       C  0.86942993  0.01518184  0.80818160     0.97410
O1588       O  0.87348944  0.99973111  0.82536807    -0.83130
O1589       O  0.83631512  0.01119595  0.85809351    -0.85780
C1590       C  0.81530240  0.01317783  0.86839846     1.01930
O1591       O  0.79875875  0.99658414  0.86482868    -0.78540
O1592       O  0.78573262  0.00760100  0.81811845    -0.78730
C1593       C  0.79108976  0.01492135  0.79660966     1.01880
O1594       O  0.81859527  0.94778803  0.78517420    -0.86050
O1595       O  0.86593439  0.96160904  0.79466859    -0.83110
C1596       C  0.87305107  0.94727796  0.81211198     0.97430
O1597       O  0.86365077  0.94877647  0.83353714    -0.83140
O1598       O  0.83147244  0.96002182  0.87147157    -0.85750
C1599       C  0.81603294  0.94258094  0.86815036     1.01900
O1600       O  0.80049776  0.94392574  0.85070735    -0.78570
O1601       O  0.78324925  0.95476746  0.80444754    -0.78720
C1602       C  0.79754577  0.94038015  0.79232663     1.01860
Cr1603     Cr  0.83343970  0.98070430  0.79129020     1.93740
Cr1604     Cr  0.84941708  0.97985550  0.84560584     1.93210
Cr1605     Cr  0.79409252  0.97581906  0.83355730     1.39100
O1606       O  0.82558188  0.97863984  0.82333958    -1.23800
O1607       O  0.81904104  0.78332113  0.94989376    -0.86050
O1608       O  0.86656447  0.79272354  0.96267725    -0.83100
C1609       C  0.87231620  0.80910927  0.94663333     0.97410
O1610       O  0.86335331  0.83071497  0.94779954    -0.83130
O1611       O  0.83233271  0.86935053  0.95965769    -0.85780
C1612       C  0.81588741  0.86617153  0.94318740     1.01930
O1613       O  0.80062163  0.84849613  0.94511483    -0.78540
O1614       O  0.78377451  0.80235756  0.95717475    -0.78730
C1615       C  0.79767472  0.78969259  0.94277802     1.01880
O1616       O  0.80391025  0.78054637  0.00197184    -0.86050
O1617       O  0.85116371  0.79458664  0.01469147    -0.83110
C1618       C  0.87042546  0.80791269  0.01595791     0.97430
O1619       O  0.87495037  0.82387276  0.99930967    -0.83140
O1620       O  0.83870786  0.85792368  0.01072234    -0.85750
C1621       C  0.81802527  0.86898872  0.01217879     1.01900
O1622       O  0.80036065  0.86361348  0.99732890    -0.78570
O1623       O  0.78712055  0.81678926  0.00991066    -0.78720
C1624       C  0.79200326  0.79488145  0.01648040     1.01860
Cr1625     Cr  0.83435274  0.78986558  0.98221245     1.93740
Cr1626     Cr  0.85060925  0.84388103  0.97939561     1.93210
Cr1627     Cr  0.79500049  0.83186673  0.97755061     1.39100
O1628       O  0.82651259  0.82181031  0.97976563    -1.23800
O1629       O  0.94957835  0.82104697  0.78642863    -0.86050
O1630       O  0.96400728  0.86733555  0.79876721    -0.83100
C1631       C  0.94903318  0.87308762  0.81611872     0.97410
O1632       O  0.95006047  0.86250534  0.83710440    -0.83130
O1633       O  0.96161513  0.82726688  0.87326138    -0.85780
C1634       C  0.94552298  0.81046550  0.86951524     1.01930
O1635       O  0.94639026  0.79757558  0.84999319    -0.78540
O1636       O  0.95771019  0.78443094  0.80221461    -0.78730
C1637       C  0.94258519  0.79935934  0.79197035     1.01880
O1638       O  0.00187196  0.80562767  0.78109289    -0.86050
O1639       O  0.01596686  0.85176969  0.79855839    -0.83110
C1640       C  0.01795328  0.86928004  0.81414162     0.97430
O1641       O  0.00099894  0.87251671  0.83007850    -0.83140
O1642       O  0.01321647  0.83385247  0.86112854    -0.85750
C1643       C  0.01489624  0.81203953  0.86955243     1.01900
O1644       O  0.99884031  0.79561602  0.86381962    -0.78570
O1645       O  0.01049847  0.78641584  0.81581506    -0.78720
C1646       C  0.01664067  0.79267238  0.79410511     1.01860
Cr1647     Cr  0.98278576  0.83544420  0.79322180     1.93740
Cr1648     Cr  0.98138981  0.84735666  0.84872263     1.93210
Cr1649     Cr  0.97846432  0.79315491  0.83217727     1.39100
O1650       O  0.98078994  0.82526062  0.82463715    -1.23800
O1651       O  0.01288575  0.13977570  0.78475533    -0.86050
O1652       O  0.99933472  0.09256221  0.79523220    -0.83100
C1653       C  0.01522035  0.08715665  0.81189723     0.97410
O1654       O  0.01319370  0.09598782  0.83353915    -0.83130
O1655       O  0.00195964  0.12886363  0.87083367    -0.85780
C1656       C  0.01843069  0.14527701  0.86709100     1.01930
O1657       O  0.01673843  0.15998436  0.84898723    -0.78540
O1658       O  0.00477851  0.17554543  0.80229934    -0.78730
C1659       C  0.01958187  0.16150340  0.79035799     1.01880
O1660       O  0.96077020  0.15518083  0.78096544    -0.86050
O1661       O  0.94734545  0.10873791  0.79586228    -0.83110
C1662       C  0.94503187  0.09014730  0.80985904     0.97430
O1663       O  0.96105517  0.08581434  0.82654074    -0.83140
O1664       O  0.94993281  0.12328706  0.85972402    -0.85750
C1665       C  0.94872890  0.14470170  0.86930666     1.01900
O1666       O  0.96490380  0.16116328  0.86408578    -0.78570
O1667       O  0.95219730  0.17254358  0.81675952    -0.78720
C1668       C  0.94596316  0.16730536  0.79482974     1.01860
Cr1669     Cr  0.98018218  0.12486754  0.79132120     1.93740
Cr1670     Cr  0.98154175  0.11012211  0.84605336     1.93210
Cr1671     Cr  0.98449649  0.16518812  0.83215443     1.39100
O1672       O  0.98211969  0.13345248  0.82313088    -1.23800
O1673       O  0.80628104  0.17735472  0.00097331    -0.86050
O1674       O  0.85379238  0.16217919  0.01191922    -0.83100
C1675       C  0.87195652  0.14732893  0.01315348     0.97410
O1676       O  0.87589733  0.13197768  0.99579191    -0.83130
O1677       O  0.84029319  0.09799963  0.00801690    -0.85780
C1678       C  0.81910610  0.08868953  0.01204375     1.01930
O1679       O  0.80070849  0.09425886  0.99831969    -0.78540
O1680       O  0.78932018  0.14153085  0.01039460    -0.78730
C1681       C  0.79445335  0.16363010  0.01605417     1.01880
O1682       O  0.81852548  0.17365657  0.94832764    -0.86050
O1683       O  0.86708831  0.16395812  0.95950274    -0.83110
C1684       C  0.87202242  0.14774101  0.94307205     0.97430
O1685       O  0.86262397  0.12629695  0.94444819    -0.83140
O1686       O  0.83165082  0.08732084  0.95730919    -0.85750
C1687       C  0.81359793  0.09016270  0.94263192     1.01900
O1688       O  0.79820466  0.10751920  0.94591172    -0.78570
O1689       O  0.78355753  0.15462374  0.95787315    -0.78720
C1690       C  0.79664958  0.16713307  0.94268389     1.01860
Cr1691     Cr  0.83556361  0.16706484  0.98006278     1.93740
Cr1692     Cr  0.85082832  0.11259748  0.97642887     1.93210
Cr1693     Cr  0.79519747  0.12542955  0.97810266     1.39100
O1694       O  0.82703963  0.13503210  0.97820596    -1.23800
O1695       O  0.15851218  0.99953245  0.17607399    -0.86050
O1696       O  0.11134083  0.01334733  0.16292796    -0.83100
C1697       C  0.09331297  0.01686537  0.14837039     0.97410
O1698       O  0.08945534  0.00266983  0.12999996    -0.83130
O1699       O  0.12651664  0.01095350  0.09545211    -0.85780
C1700       C  0.14801382  0.01188509  0.08596929     1.01930
O1701       O  0.16498398  0.99695439  0.09277806    -0.78540
O1702       O  0.17544867  0.00927514  0.14038570    -0.78730
C1703       C  0.16906986  0.01534686  0.16206448     1.01880
O1704       O  0.14209303  0.94732357  0.17094227    -0.86050
O1705       O  0.09493979  0.96247684  0.16230375    -0.83110
C1706       C  0.08733280  0.94873051  0.14474776     0.97430
O1707       O  0.09657506  0.95041372  0.12329912    -0.83140
O1708       O  0.13044993  0.95895675  0.08636068    -0.85750
C1709       C  0.14729472  0.94287101  0.08974860     1.01900
O1710       O  0.16297965  0.94526686  0.10700989    -0.78570
O1711       O  0.17810000  0.95639850  0.15418845    -0.78720
C1712       C  0.16363463  0.94080315  0.16446363     1.01860
Cr1713     Cr  0.12769518  0.98059708  0.16584160     1.93740
Cr1714     Cr  0.11261824  0.98070513  0.11063637     1.93210
Cr1715     Cr  0.16818417  0.97714412  0.12455439     1.39100
O1716       O  0.13611057  0.97959245  0.13361748    -1.23800
O1717       O  0.15621366  0.17939208  0.95624998    -0.86050
O1718       O  0.10827943  0.16483350  0.94728454    -0.83100
C1719       C  0.09065112  0.14958019  0.94505964     0.97410
O1720       O  0.08782469  0.13232127  0.96062340    -0.83130
O1721       O  0.12545348  0.10122416  0.94472481    -0.85780
C1722       C  0.14696018  0.09208070  0.94178928     1.01930
O1723       O  0.16421452  0.09658750  0.95735410    -0.78540
O1724       O  0.17566040  0.14451526  0.94733945    -0.78730
C1725       C  0.16881511  0.16610217  0.94129688     1.01880
O1726       O  0.14508814  0.17386476  0.00950146    -0.86050
O1727       O  0.09746358  0.16236962  0.99926243    -0.83110
C1728       C  0.09256670  0.14459139  0.01397403     0.97430
O1729       O  0.10168873  0.12316213  0.01071470    -0.83140
O1730       O  0.13404502  0.08651108  0.99466451    -0.85750
C1731       C  0.15075768  0.08866845  0.01099055     1.01900
O1732       O  0.16480923  0.10751534  0.01055122    -0.78570
O1733       O  0.18033438  0.15536204  0.00086187    -0.78720
C1734       C  0.16686215  0.16788916  0.01567394     1.01860
Cr1735     Cr  0.12781067  0.16787198  0.97808053     1.93740
Cr1736     Cr  0.11401316  0.11261665  0.97775649     1.93210
Cr1737     Cr  0.16902503  0.12697403  0.97903827     1.39100
O1738       O  0.13704829  0.13600039  0.97818443    -1.23800
O1739       O  0.00340015  0.17856623  0.15364993    -0.86050
O1740       O  0.01549283  0.16220282  0.10730206    -0.83100
C1741       C  0.01731736  0.14776110  0.08898034     0.97410
O1742       O  0.00189312  0.13037284  0.08603136    -0.83130
O1743       O  0.01628476  0.10024834  0.12488760    -0.85780
C1744       C  0.01877335  0.09196374  0.14670562     1.01930
O1745       O  0.00235500  0.09625686  0.16325791    -0.78540
O1746       O  0.01201758  0.14418368  0.17385920    -0.78730
C1747       C  0.01822002  0.16557568  0.16662503     1.01880
O1748       O  0.95042994  0.17254478  0.14013918    -0.86050
O1749       O  0.96317592  0.16022440  0.09335248    -0.83110
C1750       C  0.94861322  0.14229674  0.08819737     0.97430
O1751       O  0.95165223  0.12130112  0.09836164    -0.83140
O1752       O  0.96606724  0.08556871  0.13227271    -0.85750
C1753       C  0.94870418  0.08848882  0.14789300     1.01900
O1754       O  0.94895169  0.10733645  0.16186069    -0.78570
O1755       O  0.95820201  0.15534997  0.17617349    -0.78720
C1756       C  0.94323107  0.16610030  0.16145623     1.01860
Cr1757     Cr  0.98311706  0.16634229  0.12464694     1.93740
Cr1758     Cr  0.98385717  0.11109281  0.11210035     1.93210
Cr1759     Cr  0.98043129  0.12663833  0.16665568     1.39100
O1760       O  0.98244394  0.13484565  0.13458539    -1.23800
C1761       C  0.04990506  0.15427592  0.02730902    -0.27020
C1762       C  0.07450490  0.14850625  0.03401225    -0.15100
C1763       C  0.08069281  0.14487337  0.05932656     0.35530
C1764       C  0.06174053  0.14608044  0.07721375    -0.26470
C1765       C  0.03703693  0.15089562  0.07040915    -0.15710
C1766       C  0.03097233  0.15523831  0.04531219     0.36620
N1767       N  0.00550530  0.15974467  0.03821271    -0.89960
H1768       H  0.04530262  0.15696967  0.00784890     0.17730
H1769       H  0.06609047  0.14202413  0.09638948     0.17720
N1770       N  0.10578513  0.14014085  0.06756243    -0.88990
H1771       H  0.00415562  0.16225239  0.01896112     0.35100
H1772       H  0.99994522  0.17649742  0.04644405     0.40200
H1773       H  0.11862873  0.14095667  0.05296096     0.39820
H1774       H  0.10634718  0.12205869  0.07474289     0.34710
C1775       C  0.08087581  0.05998179  0.14029634    -0.27020
C1776       C  0.07610063  0.03756658  0.15262167    -0.15100
C1777       C  0.05366112  0.03457135  0.16618206     0.35530
C1778       C  0.03585400  0.05365738  0.16566801    -0.26470
C1779       C  0.04007497  0.07553804  0.15201469    -0.15710
C1780       C  0.06360516  0.07940951  0.14060921     0.36620
N1781       N  0.07042411  0.10251035  0.12884132    -0.89960
H1782       H  0.09788832  0.06230520  0.12974465     0.17730
H1783       H  0.01802074  0.05070234  0.17475774     0.17720
N1784       N  0.04793055  0.01225351  0.17984003    -0.88990
H1785       H  0.08718926  0.10846310  0.13681365     0.35100
H1786       H  0.05770198  0.11652823  0.13326740     0.40200
H1787       H  0.06271287  0.99961916  0.17952658     0.39820
H1788       H  0.03283976  0.00360888  0.17105384     0.34710
C1789       C  0.16880740  0.04967665  0.06817802    -0.27020
C1790       C  0.15227434  0.02958841  0.06546332    -0.15100
C1791       C  0.13741936  0.02786769  0.04404934     0.35530
C1792       C  0.13825675  0.04693119  0.02635210    -0.26470
C1793       C  0.15322519  0.06826171  0.02970332    -0.15710
C1794       C  0.16892528  0.06949528  0.05086927     0.36620
N1795       N  0.18418827  0.09102551  0.05527279    -0.89960
H1796       H  0.18060388  0.05058494  0.08449917     0.17730
H1797       H  0.12647835  0.04526186  0.01007623     0.17720
N1798       N  0.12115084  0.00682719  0.04061197    -0.88990
H1799       H  0.19500332  0.08861713  0.07127328     0.35100
H1800       H  0.17219791  0.10593850  0.05899498     0.40200
H1801       H  0.13236125  0.99098004  0.03889756     0.39820
H1802       H  0.11119588  0.00842504  0.02396886     0.34710
C1803       C  0.90124757  0.16920097  0.04197523    -0.27020
C1804       C  0.88919631  0.14729019  0.03448320    -0.15100
C1805       C  0.89565603  0.12450635  0.04569718     0.35530
C1806       C  0.91502043  0.12369121  0.06294717    -0.26470
C1807       C  0.92812098  0.14522570  0.06981445    -0.15710
C1808       C  0.92084517  0.16845130  0.05949457     0.36620
N1809       N  0.93324026  0.19108536  0.06662095    -0.89960
H1810       H  0.89613061  0.18669862  0.03334301     0.17730
H1811       H  0.91982471  0.10586960  0.07106762     0.17720
N1812       N  0.88213276  0.10219983  0.03984328    -0.88990
H1813       H  0.92453516  0.20648273  0.05848843     0.35100
H1814       H  0.95127136  0.19048271  0.05918596     0.40200
H1815       H  0.86439084  0.10426356  0.04768925     0.39820
H1816       H  0.89010667  0.08672025  0.04854837     0.34710
C1817       C  0.04326054  0.17021255  0.89701286    -0.27020
C1818       C  0.03903486  0.14747259  0.88481403    -0.15100
C1819       C  0.05323237  0.12634901  0.89110603     0.35530
C1820       C  0.07034420  0.12798107  0.91059164    -0.26470
C1821       C  0.07387541  0.15030666  0.92357136    -0.15710
C1822       C  0.06072901  0.17186092  0.91647871     0.36620
N1823       N  0.06400193  0.19473630  0.92996870    -0.89960
H1824       H  0.03220721  0.18635077  0.89203134     0.17730
H1825       H  0.08068247  0.11155290  0.91608904     0.17720
N1826       N  0.05040960  0.10341390  0.87754473    -0.88990
H1827       H  0.05201782  0.20845690  0.92308477     0.35100
H1828       H  0.08214720  0.20102192  0.92655447     0.40200
H1829       H  0.03311215  0.09579170  0.88229109     0.39820
H1830       H  0.06375053  0.09039957  0.88319887     0.34710
C1831       C  0.90391239  0.14686960  0.88042133    -0.27020
C1832       C  0.92886579  0.14996710  0.88755554    -0.15100
C1833       C  0.93454132  0.15643302  0.91234603     0.35530
C1834       C  0.91515737  0.15767177  0.93002783    -0.26470
C1835       C  0.89035435  0.15284093  0.92320542    -0.15710
C1836       C  0.88449081  0.14908676  0.89779017     0.36620
N1837       N  0.85919306  0.14753965  0.88899998    -0.89960
H1838       H  0.89949135  0.14268232  0.86117808     0.17730
H1839       H  0.91958693  0.16087226  0.94944692     0.17720
N1840       N  0.96001554  0.16045780  0.91969214    -0.88990
H1841       H  0.85658460  0.16190362  0.87612794     0.35100
H1842       H  0.84646196  0.15097695  0.90333275     0.40200
H1843       H  0.96957037  0.14361223  0.91757981     0.39820
H1844       H  0.96097725  0.16509181  0.93857232     0.34710
C1845       C  0.88360779  0.80140343  0.90272206    -0.27020
C1846       C  0.89115297  0.80412705  0.92753406    -0.15100
C1847       C  0.91662631  0.80629200  0.93333084     0.35530
C1848       C  0.93412177  0.80713483  0.91393566    -0.26470
C1849       C  0.92663173  0.80559098  0.88894512    -0.15710
C1850       C  0.90120910  0.80160206  0.88327001     0.36620
N1851       N  0.89316322  0.79934570  0.85787587    -0.89960
H1852       H  0.86388053  0.79999009  0.89850920     0.17730
H1853       H  0.95365339  0.80985855  0.91830071     0.17720
N1854       N  0.92449917  0.80863478  0.95880816    -0.88990
H1855       H  0.87372799  0.79786013  0.85694038     0.35100
H1856       H  0.90027247  0.78260809  0.85091149     0.40200
H1857       H  0.91764352  0.82553534  0.96564330     0.39820
H1858       H  0.94395407  0.80967419  0.95989249     0.34710
C1859       C  0.88117665  0.05961551  0.80430798    -0.27020
C1860       C  0.88826993  0.03448709  0.80338155    -0.15100
C1861       C  0.91387996  0.02823274  0.80195336     0.35530
C1862       C  0.93171867  0.04705566  0.80349243    -0.26470
C1863       C  0.92480364  0.07208545  0.80587868    -0.15710
C1864       C  0.89913810  0.07861198  0.80573513     0.36620
N1865       N  0.89048560  0.10376725  0.80896683    -0.89960
H1866       H  0.86156925  0.06443052  0.80566416     0.17730
H1867       H  0.95131942  0.04201970  0.80302613     0.17720
N1868       N  0.92251740  0.00306891  0.79878579    -0.88990
H1869       H  0.88125414  0.10899281  0.79265888     0.35100
H1870       H  0.90508204  0.11631846  0.81158295     0.40200
H1871       H  0.90798722  0.99081875  0.79469979     0.39820
H1872       H  0.93062727  0.99738260  0.81553104     0.34710
C1873       C  0.83104033  0.05210809  0.88669305    -0.27020
C1874       C  0.81156192  0.03465737  0.88543239    -0.15100
C1875       C  0.79061405  0.03768459  0.90127335     0.35530
C1876       C  0.79074734  0.05700622  0.91919084    -0.26470
C1877       C  0.81143533  0.07290730  0.92148461    -0.15710
C1878       C  0.83146454  0.07052741  0.90467119     0.36620
N1879       N  0.85278014  0.08650979  0.90545902    -0.89960
H1880       H  0.84696301  0.05091860  0.87427645     0.17730
H1881       H  0.77528495  0.05894726  0.93206951     0.17720
N1882       N  0.76980360  0.02089470  0.89973029    -0.88990
H1883       H  0.86214842  0.08371277  0.92224628     0.35100
H1884       H  0.84638258  0.10480015  0.90453976     0.40200
H1885       H  0.76131082  0.02372244  0.88245460     0.39820
H1886       H  0.75640868  0.02531865  0.91319919     0.34710
C1887       C  0.91343414  0.93237566  0.82642762    -0.27020
C1888       C  0.89412194  0.93012028  0.80896760    -0.15100
C1889       C  0.89422480  0.90994781  0.79195475     0.35530
C1890       C  0.91326797  0.89208830  0.79366713    -0.26470
C1891       C  0.93136206  0.89355134  0.81244933    -0.15710
C1892       C  0.93206216  0.91429564  0.82834622     0.36620
N1893       N  0.95156054  0.91670422  0.84655859    -0.89960
H1894       H  0.91346744  0.94798786  0.83924228     0.17730
H1895       H  0.91321056  0.87634499  0.78104445     0.17720
N1896       N  0.87505085  0.90629374  0.77361520    -0.88990
H1897       H  0.94926281  0.93302832  0.85692629     0.35100
H1898       H  0.96845271  0.91854616  0.83695251     0.40200
H1899       H  0.86190695  0.92057913  0.77388115     0.39820
H1900       H  0.86553776  0.88989836  0.77814938     0.34710
C1901       C  0.79363547  0.90883913  0.89112985    -0.27020
C1902       C  0.81605470  0.92115688  0.88534535    -0.15100
C1903       C  0.83843205  0.91347489  0.89680956     0.35530
C1904       C  0.83763709  0.89511757  0.91517492    -0.26470
C1905       C  0.81512010  0.88376184  0.92211186    -0.15710
C1906       C  0.79289575  0.89019132  0.90956221     0.36620
N1907       N  0.76965821  0.87849102  0.91607931    -0.89960
H1908       H  0.77652736  0.91447902  0.88201193     0.17730
H1909       H  0.85485751  0.88961482  0.92418798     0.17720
N1910       N  0.86197348  0.92418170  0.88962573    -0.88990
H1911       H  0.75522205  0.88514957  0.90483179     0.35100
H1912       H  0.76529598  0.88375500  0.93431509     0.40200
H1913       H  0.86555604  0.91850928  0.87135643     0.39820
H1914       H  0.87649558  0.91702658  0.90045127     0.34710
C1915       C  0.02658839  0.91490712  0.13530307    -0.27020
C1916       C  0.03082203  0.89287885  0.14857186    -0.15100
C1917       C  0.05238942  0.89062635  0.16336853     0.35530
C1918       C  0.07028228  0.90980573  0.16319177    -0.26470
C1919       C  0.06668967  0.93113511  0.14856808    -0.15710
C1920       C  0.04425086  0.93416981  0.13525983     0.36620
N1921       N  0.03951344  0.95680644  0.12176078    -0.89960
H1922       H  0.00972493  0.91675136  0.12433626     0.17730
H1923       H  0.08749679  0.90750861  0.17350613     0.17720
N1924       N  0.05667280  0.86858955  0.17772149    -0.88990
H1925       H  0.02159765  0.95654021  0.11408377     0.35100
H1926       H  0.05193145  0.95754816  0.10676395     0.40200
H1927       H  0.05849267  0.87384055  0.19636731     0.39820
H1928       H  0.07367882  0.86088284  0.17203780     0.34710
C1929       C  0.90318917  0.81320249  0.07795301    -0.27020
C1930       C  0.92773857  0.80745984  0.07084547    -0.15100
C1931       C  0.93265564  0.79902772  0.04650740     0.35530
C1932       C  0.91300275  0.79779371  0.02932064    -0.26470
C1933       C  0.88864128  0.80464044  0.03606828    -0.15710
C1934       C  0.88345240  0.81168352  0.06094349     0.36620
N1935       N  0.85894928  0.81887692  0.06927024    -0.89960
H1936       H  0.89944149  0.81961950  0.09673454     0.17730
H1937       H  0.91686487  0.79248451  0.01023080     0.17720
N1938       N  0.95771861  0.79305442  0.03898200    -0.88990
H1939       H  0.85341363  0.80619764  0.08297750     0.35100
H1940       H  0.84573631  0.81771332  0.05509632     0.40200
H1941       H  0.96820128  0.80945758  0.03970783     0.39820
H1942       H  0.95807881  0.78710126  0.02044967     0.34710
C1943       C  0.89441308  0.04630884  0.16845272    -0.27020
C1944       C  0.89279421  0.03051003  0.14765778    -0.15100
C1945       C  0.90965003  0.03370432  0.12770106     0.35530
C1946       C  0.92712794  0.05291461  0.12852888    -0.26470
C1947       C  0.92879022  0.06915424  0.14895670    -0.15710
C1948       C  0.91213343  0.06587796  0.16922181     0.36620
N1949       N  0.91327805  0.08212043  0.19044725    -0.89960
H1950       H  0.88131972  0.04392053  0.18365592     0.17730
H1951       H  0.93959402  0.05517003  0.11279275     0.17720
N1952       N  0.90899608  0.01728822  0.10650633    -0.88990
H1953       H  0.90055584  0.07640740  0.20407681     0.35100
H1954       H  0.90741942  0.09975614  0.18465065     0.40200
H1955       H  0.91386748  0.99948423  0.11267013     0.39820
H1956       H  0.92233181  0.02240662  0.09322881     0.34710
C1957       C  0.79557695  0.04875423  0.06622811    -0.27020
C1958       C  0.81690023  0.03417273  0.07072598    -0.15100
C1959       C  0.83864775  0.03847839  0.05646137     0.35530
C1960       C  0.83829341  0.05584404  0.03729037    -0.26470
C1961       C  0.81698507  0.06999068  0.03215329    -0.15710
C1962       C  0.79538101  0.06671838  0.04698529     0.36620
N1963       N  0.77372404  0.08197650  0.04301950    -0.89960
H1964       H  0.77895152  0.04579372  0.07734169     0.17730
H1965       H  0.85508864  0.05823369  0.02626978     0.17720
N1966       N  0.86146116  0.02548317  0.06152858    -0.88990
H1967       H  0.76013352  0.07823021  0.05649834     0.35100
H1968       H  0.76596422  0.07683248  0.02594326     0.40200
H1969       H  0.87525972  0.03863864  0.06559040     0.39820
H1970       H  0.86680869  0.01591544  0.04542320     0.34710
C1971       C  0.79439510  0.91506452  0.06092790    -0.27020
C1972       C  0.81683990  0.92734717  0.06663834    -0.15100
C1973       C  0.83858105  0.92189673  0.05281372     0.35530
C1974       C  0.83794270  0.90308973  0.03498056    -0.26470
C1975       C  0.81604639  0.88969473  0.03013257    -0.15710
C1976       C  0.79381447  0.89601836  0.04280029     0.36620
N1977       N  0.77112400  0.88264723  0.03787956    -0.89960
H1978       H  0.77765198  0.91956443  0.07132783     0.17730
H1979       H  0.85485164  0.89884121  0.02471873     0.17720
N1980       N  0.86132796  0.93556780  0.05689908    -0.88990
H1981       H  0.75653499  0.88966642  0.04876216     0.35100
H1982       H  0.77384846  0.86420853  0.04348967     0.40200
H1983       H  0.85807334  0.95405271  0.05172537     0.39820
H1984       H  0.87565873  0.92900633  0.04540569     0.34710
C1985       C  0.88209115  0.89830586  0.15155843    -0.27020
C1986       C  0.88955526  0.92327915  0.15366359    -0.15100
C1987       C  0.91494888  0.92916898  0.15710760     0.35530
C1988       C  0.93262897  0.91000335  0.15676522    -0.26470
C1989       C  0.92540514  0.88522211  0.15306638    -0.15710
C1990       C  0.89992132  0.87907227  0.15111413     0.36620
N1991       N  0.89246658  0.85369575  0.14693431    -0.89960
H1992       H  0.86251547  0.89397444  0.14888807     0.17730
H1993       H  0.95228572  0.91447860  0.15848916     0.17720
N1994       N  0.92267309  0.95453507  0.16101108    -0.88990
H1995       H  0.87309778  0.85250837  0.14490895     0.35100
H1996       H  0.89694743  0.84354348  0.16290566     0.40200
H1997       H  0.92031872  0.96415389  0.14428889     0.39820
H1998       H  0.94174986  0.95534415  0.16499817     0.34710
C1999       C  0.07979213  0.05826672  0.80623395    -0.27020
C2000       C  0.07358731  0.03297501  0.80445983    -0.15100
C2001       C  0.04829203  0.02594724  0.80242040     0.35530
C2002       C  0.02959627  0.04431891  0.80319251    -0.26470
C2003       C  0.03566968  0.06946610  0.80665635    -0.15710
C2004       C  0.06115218  0.07661019  0.80780042     0.36620
N2005       N  0.06883043  0.10211005  0.81074270    -0.89960
H2006       H  0.09920743  0.06369809  0.80790012     0.17730
H2007       H  0.01013099  0.03887177  0.80241401     0.17720
N2008       N  0.04171682  0.00006669  0.80035443    -0.88990
H2009       H  0.07777596  0.10367221  0.82795287     0.35100
H2010       H  0.05363798  0.11424148  0.81115306     0.40200
H2011       H  0.04903706  0.99346442  0.78354885     0.39820
H2012       H  0.02234901  0.99796067  0.79928732     0.34710
C2013       C  0.14183057  0.05952725  0.87962587    -0.27020
C2014       C  0.15316123  0.03670328  0.88486636    -0.15100
C2015       C  0.16521277  0.03312694  0.90795073     0.35530
C2016       C  0.16446582  0.05229918  0.92581730    -0.26470
C2017       C  0.15129897  0.07442821  0.92118024    -0.15710
C2018       C  0.14064242  0.07826413  0.89753317     0.36620
N2019       N  0.12837499  0.10107266  0.89151341    -0.89960
H2020       H  0.13294237  0.06252884  0.86174997     0.17730
H2021       H  0.17275088  0.04931673  0.94396122     0.17720
N2022       N  0.17686774  0.00971239  0.91369543    -0.88990
H2023       H  0.13765053  0.10899305  0.87630681     0.35100
H2024       H  0.11021287  0.09688396  0.88585325     0.40200
H2025       H  0.16284926  0.99617900  0.91443082     0.39820
H2026       H  0.18493460  0.01026997  0.93139497     0.34710
C2027       C  0.06194694  0.92025751  0.83468769    -0.27020
C2028       C  0.07579295  0.92508064  0.81310182    -0.15100
C2029       C  0.07175169  0.91031100  0.79169197     0.35530
C2030       C  0.05334057  0.89140762  0.79236995    -0.26470
C2031       C  0.03911213  0.88715149  0.81401964    -0.15710
C2032       C  0.04421453  0.90134290  0.83565364     0.36620
N2033       N  0.03152458  0.89644233  0.85879164    -0.89960
H2034       H  0.06502437  0.93138115  0.85123632     0.17730
H2035       H  0.04975808  0.88037025  0.77587375     0.17720
N2036       N  0.08666371  0.91399785  0.76974612    -0.88990
H2037       H  0.03694055  0.90904359  0.87261050     0.35100
H2038       H  0.03719521  0.87884840  0.86487772     0.40200
H2039       H  0.08180351  0.93125425  0.76219587     0.39820
H2040       H  0.08225359  0.90067513  0.75625194     0.34710
C2041       C  0.12790731  0.88944899  0.04858101    -0.27020
C2042       C  0.15034879  0.88390794  0.03640820    -0.15100
C2043       C  0.17248529  0.89629157  0.04333774     0.35530
C2044       C  0.17136636  0.91493956  0.06172123    -0.26470
C2045       C  0.14853451  0.92145117  0.07278408    -0.15710
C2046       C  0.12669804  0.90812100  0.06666910     0.36620
N2047       N  0.10344540  0.91331994  0.07905783    -0.89960
H2048       H  0.11103580  0.87958917  0.04339200     0.17730
H2049       H  0.18807908  0.92518628  0.06661476     0.17720
N2050       N  0.19552076  0.89112086  0.03061029    -0.88990
H2051       H  0.08996271  0.90009932  0.07423571     0.35100
H2052       H  0.09682400  0.93033651  0.07235988     0.40200
H2053       H  0.20082341  0.87298704  0.03519508     0.39820
H2054       H  0.20971574  0.90277177  0.03713198     0.34710
C2055       C  0.07625544  0.79525646  0.05127511    -0.27020
C2056       C  0.07108525  0.80662647  0.02844827    -0.15100
C2057       C  0.04765483  0.81755120  0.02420021     0.35530
C2058       C  0.03020654  0.81831823  0.04356218    -0.26470
C2059       C  0.03566807  0.80833563  0.06710946    -0.15710
C2060       C  0.05856106  0.79556431  0.07065307     0.36620
N2061       N  0.06424763  0.78383170  0.09399862    -0.89960
H2062       H  0.09443437  0.78692094  0.05423820     0.17730
H2063       H  0.01244150  0.82737343  0.04035421     0.17720
N2064       N  0.04184444  0.82816601  0.00030866    -0.88990
H2065       H  0.08241899  0.77673262  0.09388915     0.35100
H2066       H  0.05238771  0.76848976  0.09587874     0.40200
H2067       H  0.05324118  0.84375333  0.99773938     0.39820
H2068       H  0.02344744  0.83464214  0.99997607     0.34710
C2069       C  0.12783135  0.90347062  0.92028175    -0.27020
C2070       C  0.14953507  0.89062161  0.92702474    -0.15100
C2071       C  0.17223052  0.89615121  0.91467451     0.35530
C2072       C  0.17236341  0.91412242  0.89545403    -0.26470
C2073       C  0.15047017  0.92702066  0.88906460    -0.15710
C2074       C  0.12803561  0.92139039  0.90161625     0.36620
N2075       N  0.10508347  0.93344860  0.89510756    -0.89960
H2076       H  0.11027344  0.89954226  0.92954487     0.17730
H2077       H  0.18962402  0.91844976  0.88585106     0.17720
N2078       N  0.19475307  0.88314299  0.92107257    -0.88990
H2079       H  0.09811223  0.94235254  0.91097603     0.35100
H2080       H  0.09226838  0.91977330  0.88977041     0.40200
H2081       H  0.19988313  0.88880115  0.93896128     0.39820
H2082       H  0.20934541  0.88846146  0.90927000     0.34710
C2083       C  0.04914275  0.80187744  0.92998477    -0.27020
C2084       C  0.07394073  0.80592950  0.92257982    -0.15100
C2085       C  0.07955329  0.80911407  0.89713452     0.35530
C2086       C  0.05995500  0.80957358  0.87971708    -0.26470
C2087       C  0.03505850  0.80651664  0.88731765    -0.15710
C2088       C  0.02963702  0.80181849  0.91253624     0.36620
N2089       N  0.00422356  0.79866630  0.92052624    -0.89960
H2090       H  0.04493916  0.79947045  0.94958318     0.17730
H2091       H  0.06396694  0.81333643  0.86029334     0.17720
N2092       N  0.10485169  0.81332338  0.88930005    -0.88990
H2093       H  0.00334246  0.79629331  0.93982618     0.35100
H2094       H  0.99757874  0.78215442  0.91263827     0.40200
H2095       H  0.11028078  0.83058481  0.89645500     0.39820
H2096       H  0.10585325  0.81484609  0.86991929     0.34710
C2097       C  0.16849733  0.08109186  0.76429216    -0.27020
C2098       C  0.18267818  0.09548760  0.78096772    -0.15100
C2099       C  0.19540469  0.08328415  0.80040633     0.35530
C2100       C  0.19341947  0.05737703  0.80309642    -0.26470
C2101       C  0.17853908  0.04291104  0.78702704    -0.15710
C2102       C  0.16637973  0.05505285  0.76707892     0.36620
N2103       N  0.15125081  0.04126111  0.74999852    -0.89960
H2104       H  0.15885552  0.09009361  0.74903561     0.17730
H2105       H  0.20282000  0.04874556  0.81870997     0.17720
N2106       N  0.20950797  0.09722764  0.81825933    -0.88990
H2107       H  0.15828522  0.04413866  0.73206204     0.35100
H2108       H  0.13315018  0.04850301  0.75067518     0.40200
H2109       H  0.22782986  0.09054100  0.81810927     0.39820
H2110       H  0.20194509  0.09387814  0.83590310     0.34710
C2111       C  0.15880507  0.17105304  0.87188700    -0.27020
C2112       C  0.18139463  0.18074920  0.86366402    -0.15100
C2113       C  0.19970333  0.18796934  0.88114222     0.35530
C2114       C  0.19517005  0.18427079  0.90685787    -0.26470
C2115       C  0.17251460  0.17395794  0.91505942    -0.15710
C2116       C  0.15419623  0.16757687  0.89724883     0.36620
N2117       N  0.13094184  0.15705542  0.90494134    -0.89960
H2118       H  0.14477010  0.16579254  0.85834256     0.17730
H2119       H  0.20941258  0.18889647  0.92037792     0.17720
N2120       N  0.22267285  0.19892807  0.87271371    -0.88990
H2121       H  0.11963619  0.15280649  0.88967031     0.35100
H2122       H  0.13483624  0.14040193  0.91409652     0.40200
H2123       H  0.23224029  0.18548195  0.86235321     0.39820
H2124       H  0.23403382  0.20340660  0.88787490     0.34710
C2125       C  0.08282764  0.19430741  0.79204958    -0.27020
C2126       C  0.09796939  0.17662567  0.78000492    -0.15100
C2127       C  0.08659729  0.15533738  0.76943658     0.35530
C2128       C  0.06086532  0.15201239  0.77151959    -0.26470
C2129       C  0.04566660  0.16913116  0.78435110    -0.15710
C2130       C  0.05684568  0.19082809  0.79420817     0.36620
N2131       N  0.04211491  0.20912711  0.80687544    -0.89960
H2132       H  0.09119675  0.21092778  0.79987128     0.17730
H2133       H  0.05292514  0.13511047  0.76385808     0.17720
N2134       N  0.10074730  0.13597884  0.75764614    -0.88990
H2135       H  0.04449489  0.22615326  0.79773836     0.35100
H2136       H  0.04902281  0.21099728  0.82496946     0.40200
H2137       H  0.11444241  0.12976517  0.77001097     0.39820
H2138       H  0.10922112  0.14303381  0.74161593     0.34710
C2139       C  0.16741925  0.26293846  0.57932325    -0.27020
C2140       C  0.18425995  0.27885938  0.59145948    -0.15100
C2141       C  0.19853432  0.29576886  0.57705727     0.35530
C2142       C  0.19426234  0.29750782  0.55125618    -0.26470
C2143       C  0.17589016  0.28297938  0.53958875    -0.15710
C2144       C  0.16315848  0.26479230  0.55370229     0.36620
N2145       N  0.14549661  0.24839530  0.54219713    -0.89960
H2146       H  0.15681101  0.24937575  0.58988620     0.17730
H2147       H  0.20425884  0.31140600  0.54055143     0.17720
N2148       N  0.21728465  0.31110861  0.58849223    -0.88990
H2149       H  0.15129619  0.23007884  0.54533892     0.35100
H2150       H  0.12821921  0.25082988  0.55093406     0.40200
H2151       H  0.20806934  0.32481299  0.59882204     0.39820
H2152       H  0.22758406  0.32061362  0.57494633     0.34710
C2153       C  0.15631964  0.41264378  0.43178613    -0.27020
C2154       C  0.15315425  0.38765990  0.42501839    -0.15100
C2155       C  0.15167690  0.38110946  0.39954701     0.35530
C2156       C  0.15155046  0.40002952  0.38161174    -0.26470
C2157       C  0.15322279  0.42517890  0.38846720    -0.15710
C2158       C  0.15610491  0.43159527  0.41389376     0.36620
N2159       N  0.15757384  0.45694978  0.42246900    -0.89960
H2160       H  0.15745406  0.41762707  0.45131674     0.17730
H2161       H  0.14954602  0.39507802  0.36214544     0.17720
N2162       N  0.14987930  0.35567830  0.39124698    -0.88990
H2163       H  0.14177086  0.46042411  0.43337781     0.35100
H2164       H  0.15710677  0.46972121  0.40789351     0.40200
H2165       H  0.15083076  0.34317761  0.40608021     0.39820
H2166       H  0.16550136  0.35201074  0.38013641     0.34710
C2167       C  0.12842784  0.56734942  0.40660535    -0.27020
C2168       C  0.14884267  0.57058459  0.42270638    -0.15100
C2169       C  0.17074009  0.55631829  0.41873732     0.35530
C2170       C  0.17093804  0.53814851  0.39981694    -0.26470
C2171       C  0.14975022  0.53397425  0.38516327    -0.15710
C2172       C  0.12848176  0.54900703  0.38822467     0.36620
N2173       N  0.10697833  0.54566706  0.37257713    -0.89960
H2174       H  0.11177550  0.57856228  0.40886680     0.17730
H2175       H  0.18728520  0.52657746  0.39709721     0.17720
N2176       N  0.19234430  0.55972100  0.43418635    -0.88990
H2177       H  0.09386566  0.55974949  0.37569008     0.35100
H2178       H  0.09832478  0.52907268  0.37793135     0.40200
H2179       H  0.19952047  0.57742767  0.43043302     0.39820
H2180       H  0.20635065  0.54705270  0.42933750     0.34710
C2181       C  0.16579057  0.39654476  0.64830722    -0.27020
C2182       C  0.17290358  0.41387444  0.66660908    -0.15100
C2183       C  0.18344408  0.40522491  0.68898614     0.35530
C2184       C  0.18648031  0.37930418  0.69255318    -0.26470
C2185       C  0.17894016  0.36209861  0.67424766    -0.15710
C2186       C  0.16831371  0.37090257  0.65189050     0.36620
N2187       N  0.15949613  0.35454045  0.63257098    -0.89960
H2188       H  0.15756807  0.40301340  0.63104831     0.17730
H2189       H  0.19478483  0.37246786  0.70961171     0.17720
N2190       N  0.19145191  0.42265150  0.70762415    -0.88990
H2191       H  0.17041473  0.35766778  0.61672885     0.35100
H2192       H  0.16161838  0.33580699  0.63721627     0.40200
H2193       H  0.20594910  0.43321992  0.69997096     0.39820
H2194       H  0.19894652  0.41322948  0.72291128     0.34710
C2195       C  0.12919135  0.40564439  0.56962631    -0.27020
C2196       C  0.14791200  0.42395080  0.57098815    -0.15100
C2197       C  0.16911628  0.42181133  0.55528373     0.35530
C2198       C  0.17036409  0.40208686  0.53796530    -0.26470
C2199       C  0.15081018  0.38488540  0.53594054    -0.15710
C2200       C  0.13042861  0.38626158  0.55233867     0.36620
N2201       N  0.11078881  0.36809773  0.55103596    -0.89960
H2202       H  0.11306103  0.40665557  0.58173898     0.17730
H2203       H  0.18593868  0.40090425  0.52512385     0.17720
N2204       N  0.18885944  0.43990216  0.55630846    -0.88990
H2205       H  0.09688391  0.37185897  0.56418998     0.35100
H2206       H  0.11858617  0.35098319  0.55597354     0.40200
H2207       H  0.18168549  0.45673799  0.54967201     0.39820
H2208       H  0.20335691  0.43497925  0.54421794     0.34710
C2209       C  0.17057684  0.54095221  0.56171179    -0.27020
C2210       C  0.14780993  0.53591890  0.57364713    -0.15100
C2211       C  0.12628660  0.54955030  0.56725283     0.35530
C2212       C  0.12764468  0.56695019  0.54798049    -0.26470
C2213       C  0.15005398  0.57130753  0.53529761    -0.15710
C2214       C  0.17191357  0.55855220  0.54236252     0.36620
N2215       N  0.19475241  0.56207281  0.52873056    -0.89960
H2216       H  0.18699435  0.53028174  0.56667481     0.17730
H2217       H  0.11092671  0.57678167  0.54237486     0.17720
N2218       N  0.10321771  0.54591414  0.58051077    -0.88990
H2219       H  0.20867183  0.55026091  0.53552517     0.35100
H2220       H  0.20094500  0.58020732  0.53201030     0.40200
H2221       H  0.09596527  0.52864648  0.57524322     0.39820
H2222       H  0.08999134  0.55914497  0.57507089     0.34710
C2223       C  0.07948316  0.55302429  0.30292207    -0.27020
C2224       C  0.07215187  0.52832959  0.30685507    -0.15100
C2225       C  0.04693340  0.52263281  0.31101856     0.35530
C2226       C  0.02949552  0.54203650  0.31215358    -0.26470
C2227       C  0.03685460  0.56702772  0.30943604    -0.15710
C2228       C  0.06234312  0.57263309  0.30485396     0.36620
N2229       N  0.07189008  0.59766412  0.30359549    -0.89960
H2230       H  0.09894044  0.55727943  0.29974148     0.17730
H2231       H  0.01008875  0.53765505  0.31574138     0.17720
N2232       N  0.03937152  0.49726343  0.31510466    -0.88990
H2233       H  0.08559204  0.59947185  0.31731985     0.35100
H2234       H  0.05838540  0.61079991  0.30824470     0.40200
H2235       H  0.04283403  0.48738299  0.29868486     0.39820
H2236       H  0.02014303  0.49625181  0.31829804     0.34710
C2237       C  0.05620558  0.65950879  0.38375348    -0.27020
C2238       C  0.03333709  0.64788460  0.38923793    -0.15100
C2239       C  0.02948944  0.63745331  0.41307855     0.35530
C2240       C  0.04842216  0.63880732  0.43067129    -0.26470
C2241       C  0.07174653  0.64934977  0.42516526    -0.15710
C2242       C  0.07573089  0.66000219  0.40140402     0.36620
N2243       N  0.09964290  0.67030733  0.39492358    -0.89960
H2244       H  0.05926610  0.66698546  0.36525956     0.17730
H2245       H  0.04492538  0.63062406  0.44878959     0.17720
N2246       N  0.00711327  0.62434991  0.41998446    -0.88990
H2247       H  0.09930904  0.67750925  0.37684638     0.35100
H2248       H  0.11256282  0.65571218  0.39475968     0.40200
H2249       H  0.99386844  0.62436734  0.40584632     0.39820
H2250       H  0.99919054  0.63368869  0.43512797     0.34710
C2251       C  0.91118743  0.52646912  0.29750675    -0.27020
C2252       C  0.88750979  0.53344639  0.30615620    -0.15100
C2253       C  0.88370108  0.55802239  0.31488472     0.35530
C2254       C  0.90398833  0.57418856  0.31674719    -0.26470
C2255       C  0.92801873  0.56682957  0.30962456    -0.15710
C2256       C  0.93167390  0.54266873  0.29941604     0.36620
N2257       N  0.95576765  0.53323931  0.29220677    -0.89960
H2258       H  0.91425161  0.50758710  0.29102821     0.17730
H2259       H  0.90091870  0.59278091  0.32404839     0.17720
N2260       N  0.85961061  0.56720395  0.32219786    -0.88990
H2261       H  0.95964731  0.51780950  0.30342150     0.35100
H2262       H  0.97000938  0.54592773  0.29563994     0.40200
H2263       H  0.84570221  0.55425765  0.31828338     0.39820
H2264       H  0.85572290  0.58253043  0.31087603     0.34710
C2265       C  0.02881173  0.54643984  0.64026672    -0.27020
C2266       C  0.03428018  0.56973659  0.65112708    -0.15100
C2267       C  0.05755433  0.57235604  0.66407508     0.35530
C2268       C  0.07447452  0.55229328  0.66424058    -0.26470
C2269       C  0.06915100  0.52996508  0.65199950    -0.15710
C2270       C  0.04592153  0.52674487  0.64047209     0.36620
N2271       N  0.04012303  0.50359088  0.62831398    -0.89960
H2272       H  0.01110420  0.54355385  0.63099919     0.17730
H2273       H  0.09253385  0.55463094  0.67302075     0.17720
N2274       N  0.06544259  0.59454953  0.67688827    -0.88990
H2275       H  0.02234855  0.50423995  0.62034491     0.35100
H2276       H  0.03951562  0.48977848  0.64200281     0.40200
H2277       H  0.05289630  0.60914174  0.67577562     0.39820
H2278       H  0.08194312  0.60078931  0.66853979     0.34710
C2279       C  0.05640818  0.63321434  0.57209752    -0.27020
C2280       C  0.03476890  0.64731248  0.56807510    -0.15100
C2281       C  0.03361816  0.66334382  0.54724652     0.35530
C2282       C  0.05376373  0.66385759  0.53027975    -0.26470
C2283       C  0.07492565  0.64887988  0.53405967    -0.15710
C2284       C  0.07683323  0.63467145  0.55602323     0.36620
N2285       N  0.09941217  0.62134233  0.56166300    -0.89960
H2286       H  0.05736273  0.62060152  0.58774051     0.17730
H2287       H  0.05231967  0.67481611  0.51341489     0.17720
N2288       N  0.01159117  0.67787064  0.54262541    -0.88990
H2289       H  0.09774746  0.61175437  0.57852506     0.35100
H2290       H  0.11359952  0.63448997  0.56409597     0.40200
H2291       H  0.99699561  0.66546701  0.53902085     0.39820
H2292       H  0.01382494  0.68864694  0.52656933     0.34710
C2293       C  0.91318352  0.65550422  0.42850504    -0.27020
C2294       C  0.88799897  0.65497957  0.42147025    -0.15100
C2295       C  0.88194123  0.65596526  0.39568235     0.35530
C2296       C  0.90135784  0.65530308  0.37799555    -0.26470
C2297       C  0.92637563  0.65353191  0.38540411    -0.15710
C2298       C  0.93235737  0.65520114  0.41080850     0.36620
N2299       N  0.95796156  0.65647341  0.41853636    -0.89960
H2300       H  0.91797091  0.65565541  0.44806089     0.17730
H2301       H  0.89677997  0.65475007  0.35835125     0.17720
N2302       N  0.85673451  0.65682831  0.38657135    -0.88990
H2303       H  0.95917871  0.65786598  0.43791246     0.35100
H2304       H  0.96553347  0.67290683  0.41131906     0.40200
H2305       H  0.84374695  0.65543013  0.40089634     0.39820
H2306       H  0.85393239  0.64134894  0.37511170     0.34710
C2307       C  0.79297939  0.55842118  0.42065035    -0.27020
C2308       C  0.81440448  0.57357535  0.42208273    -0.15100
C2309       C  0.83279267  0.57153332  0.40309279     0.35530
C2310       C  0.83046418  0.55307541  0.38486853    -0.26470
C2311       C  0.80993219  0.53711995  0.38440873    -0.15710
C2312       C  0.79057331  0.54014882  0.40190505     0.36620
N2313       N  0.76910882  0.52411844  0.40113307    -0.89960
H2314       H  0.77854913  0.56013977  0.43468823     0.17730
H2315       H  0.84512631  0.55070900  0.37114034     0.17720
N2316       N  0.85405850  0.58786273  0.40248386    -0.88990
H2317       H  0.75654346  0.52881726  0.41528643     0.35100
H2318       H  0.77514241  0.50597708  0.40481482     0.40200
H2319       H  0.84733279  0.60580335  0.39921083     0.39820
H2320       H  0.86584558  0.58357695  0.38754843     0.34710
C2321       C  0.88223751  0.64633276  0.55665639    -0.27020
C2322       C  0.88876106  0.65425284  0.53257723    -0.15100
C2323       C  0.91295030  0.66351982  0.52801721     0.35530
C2324       C  0.93063084  0.66323227  0.54733191    -0.26470
C2325       C  0.92442245  0.65404270  0.57096867    -0.15710
C2326       C  0.89983242  0.64637080  0.57602276     0.36620
N2327       N  0.89328996  0.63730635  0.60035361    -0.89960
H2328       H  0.86360348  0.63922882  0.56007725     0.17730
H2329       H  0.94962561  0.66911810  0.54366704     0.17720
N2330       N  0.91991649  0.67163227  0.50348986    -0.88990
H2331       H  0.87455169  0.63188500  0.60084581     0.35100
H2332       H  0.89505689  0.65215101  0.61282349     0.40200
H2333       H  0.91951087  0.65599609  0.49192115     0.39820
H2334       H  0.93832736  0.67809002  0.50335242     0.34710
C2335       C  0.90129500  0.38087679  0.30404816    -0.27020
C2336       C  0.92621248  0.38816617  0.30749935    -0.15100
C2337       C  0.93206458  0.41372945  0.30922578     0.35530
C2338       C  0.91277695  0.43131153  0.30879284    -0.26470
C2339       C  0.88766491  0.42410433  0.30705953    -0.15710
C2340       C  0.88182027  0.39842284  0.30425576     0.36620
N2341       N  0.85666572  0.38909978  0.30345249    -0.89960
H2342       H  0.89676430  0.36124274  0.30271259     0.17730
H2343       H  0.91738195  0.45090603  0.31044264     0.17720
N2344       N  0.95759667  0.42185183  0.31099556    -0.88990
H2345       H  0.85345795  0.38221045  0.28553593     0.35100
H2346       H  0.84340271  0.40281907  0.30698196     0.40200
H2347       H  0.96384465  0.41785029  0.32896299     0.39820
H2348       H  0.95876525  0.44120448  0.30919199     0.34710
C2349       C  0.05858928  0.38305542  0.32121666    -0.27020
C2350       C  0.03639064  0.38744569  0.30798414    -0.15100
C2351       C  0.03490160  0.40823664  0.29195543     0.35530
C2352       C  0.05518495  0.42488331  0.29074976    -0.26470
C2353       C  0.07696964  0.42053699  0.30452078    -0.15710
C2354       C  0.07904516  0.39903949  0.31919594     0.36620
N2355       N  0.10160689  0.39399932  0.33272910    -0.89960
H2356       H  0.05989277  0.36725097  0.33367932     0.17730
H2357       H  0.05365499  0.44180479  0.27987189     0.17720
N2358       N  0.01238535  0.41332938  0.27838603    -0.88990
H2359       H  0.10062121  0.37660657  0.34142447     0.35100
H2360       H  0.10281149  0.40711272  0.34701108     0.40200
H2361       H  0.01061826  0.39961590  0.26469220     0.39820
H2362       H  0.01385395  0.43027902  0.26892416     0.34710
C2363       C  0.03122287  0.30564215  0.40998366    -0.27020
C2364       C  0.03844718  0.30664740  0.38496494    -0.15100
C2365       C  0.06400907  0.30556210  0.37863816     0.35530
C2366       C  0.08192309  0.30514011  0.39783886    -0.26470
C2367       C  0.07453071  0.30553003  0.42294896    -0.15710
C2368       C  0.04885140  0.30456096  0.42896171     0.36620
N2369       N  0.03996945  0.30204791  0.45405939    -0.89960
H2370       H  0.01157961  0.30570722  0.41486056     0.17730
H2371       H  0.10162453  0.30573134  0.39325102     0.17720
N2372       N  0.07166722  0.30658364  0.35299544    -0.88990
H2373       H  0.03388766  0.31955884  0.46002210     0.35100
H2374       H  0.05411810  0.29601653  0.46592669     0.40200
H2375       H  0.06577418  0.29012668  0.34443032     0.39820
H2376       H  0.09113624  0.30679834  0.35164375     0.34710
C2377       C  0.88959013  0.55276071  0.66588854    -0.27020
C2378       C  0.89307691  0.53164211  0.65082701    -0.15100
C2379       C  0.91482266  0.52982431  0.63584443     0.35530
C2380       C  0.93198691  0.54923929  0.63584442    -0.26470
C2381       C  0.92814815  0.57070239  0.64997035    -0.15710
C2382       C  0.90676522  0.57261315  0.66539046     0.36620
N2383       N  0.90133830  0.59454588  0.67978275    -0.89960
H2384       H  0.87273525  0.55448095  0.67694473     0.17730
H2385       H  0.94831322  0.54783926  0.62393940     0.17720
N2386       N  0.91985781  0.50911475  0.61960945    -0.88990
H2387       H  0.88491992  0.60234091  0.67274303     0.35100
H2388       H  0.91521483  0.60801581  0.67772518     0.40200
H2389       H  0.90641857  0.49522857  0.62106462     0.39820
H2390       H  0.93672020  0.50114727  0.62525854     0.34710
C2391       C  0.83844454  0.54302767  0.56196791    -0.27020
C2392       C  0.81573961  0.53531769  0.57246320    -0.15100
C2393       C  0.79344873  0.54752431  0.56554625     0.35530
C2394       C  0.79435304  0.56636087  0.54728227    -0.26470
C2395       C  0.81702236  0.57294910  0.53582574    -0.15710
C2396       C  0.83939831  0.56183126  0.54402532     0.36620
N2397       N  0.86309517  0.56981446  0.53425589    -0.89960
H2398       H  0.85569930  0.53432726  0.56786722     0.17730
H2399       H  0.77721785  0.57519311  0.54126252     0.17720
N2400       N  0.77000423  0.54028938  0.57638426    -0.88990
H2401       H  0.87765754  0.55930414  0.54180096     0.35100
H2402       H  0.86591973  0.58812595  0.54021984     0.40200
H2403       H  0.76625936  0.52205659  0.57066705     0.39820
H2404       H  0.75553070  0.55134831  0.56947802     0.34710
C2405       C  0.79252078  0.39718810  0.41599660    -0.27020
C2406       C  0.81528830  0.39008186  0.42688468    -0.15100
C2407       C  0.83757022  0.40190172  0.41920743     0.35530
C2408       C  0.83662135  0.42021399  0.40088980    -0.26470
C2409       C  0.81403399  0.42761193  0.38999557    -0.15710
C2410       C  0.79157137  0.41627351  0.39792759     0.36620
N2411       N  0.76808708  0.42370359  0.38742810    -0.89960
H2412       H  0.77542452  0.38821074  0.42197632     0.17730
H2413       H  0.85393871  0.42902479  0.39529177     0.17720
N2414       N  0.86134753  0.39488136  0.42947875    -0.88990
H2415       H  0.75363712  0.41259907  0.39437167     0.35100
H2416       H  0.76440909  0.44182425  0.39351665     0.40200
H2417       H  0.86267669  0.40309658  0.44707277     0.39820
H2418       H  0.87599175  0.40241179  0.41902013     0.34710
C2419       C  0.91538574  0.32141638  0.42996647    -0.27020
C2420       C  0.89284929  0.30933941  0.42500293    -0.15100
C2421       C  0.88992783  0.29568974  0.40279779     0.35530
C2422       C  0.90958088  0.29543265  0.38529900    -0.26470
C2423       C  0.93188345  0.30835569  0.39000563    -0.15710
C2424       C  0.93501743  0.32093157  0.41294455     0.36620
N2425       N  0.95770179  0.33358720  0.41959206    -0.89960
H2426       H  0.91763136  0.33172159  0.44716836     0.17730
H2427       H  0.90709668  0.28617057  0.36754156     0.17720
N2428       N  0.86666212  0.28348157  0.39753108    -0.88990
H2429       H  0.95388541  0.35266766  0.42020823     0.35100
H2430       H  0.97173311  0.33091071  0.40643445     0.40200
H2431       H  0.86429645  0.26930967  0.41065567     0.39820
H2432       H  0.86734290  0.27486302  0.38008475     0.34710
C2433       C  0.84045884  0.40133444  0.53712002    -0.27020
C2434       C  0.81880552  0.38715727  0.53353882    -0.15100
C2435       C  0.79715121  0.39268814  0.54755564     0.35530
C2436       C  0.79798923  0.41208658  0.56529816    -0.26470
C2437       C  0.81998460  0.42584120  0.56904850    -0.15710
C2438       C  0.84120436  0.42056954  0.55447116     0.36620
N2439       N  0.86354673  0.43505905  0.55688748    -0.89960
H2440       H  0.85702977  0.39767437  0.52609580     0.17730
H2441       H  0.78171160  0.41608272  0.57660580     0.17720
N2442       N  0.77490936  0.37803517  0.54457737    -0.88990
H2443       H  0.86760981  0.44298985  0.53957461     0.35100
H2444       H  0.87815758  0.42304498  0.56156513     0.40200
H2445       H  0.76760758  0.38194657  0.52698588     0.39820
H2446       H  0.76131141  0.38354408  0.55742987     0.34710
C2447       C  0.06409274  0.30233305  0.65389141    -0.27020
C2448       C  0.04692956  0.28788704  0.66745303    -0.15100
C2449       C  0.05583449  0.26880039  0.68325584     0.35530
C2450       C  0.08174932  0.26517530  0.68545585    -0.26470
C2451       C  0.09878637  0.27982563  0.67195634    -0.15710
C2452       C  0.08989548  0.29834433  0.65574687     0.36620
N2453       N  0.10711708  0.31362800  0.64198556    -0.89960
H2454       H  0.05722157  0.31686093  0.64170400     0.17730
H2455       H  0.08866318  0.25084619  0.69786217     0.17720
N2456       N  0.03942401  0.25319145  0.69759519    -0.88990
H2457       H  0.09753901  0.32699314  0.63156542     0.35100
H2458       H  0.11629886  0.30218793  0.62916045     0.40200
H2459       H  0.02073434  0.25775533  0.69468862     0.39820
H2460       H  0.04305253  0.25656945  0.71641209     0.34710
C2461       C  0.05838165  0.38054936  0.64317903    -0.27020
C2462       C  0.03354851  0.38739910  0.64784973    -0.15100
C2463       C  0.02811019  0.41175746  0.65598421     0.35530
C2464       C  0.04755011  0.42919064  0.65805127    -0.26470
C2465       C  0.07226009  0.42257777  0.65252980    -0.15710
C2466       C  0.07779116  0.39778991  0.64579929     0.36620
N2467       N  0.10278817  0.38990930  0.64068963    -0.89960
H2468       H  0.06266592  0.36179309  0.63712688     0.17730
H2469       H  0.04331489  0.44828194  0.66303485     0.17720
N2470       N  0.00276207  0.41904687  0.66073764    -0.88990
H2471       H  0.11339460  0.39289190  0.65672007     0.35100
H2472       H  0.11002349  0.40098360  0.62642260     0.40200
H2473       H  0.99347898  0.41860638  0.64366920     0.39820
H2474       H  0.00199657  0.43749553  0.66692581     0.34710
C2475       C  0.06158763  0.30411433  0.57546751    -0.27020
C2476       C  0.03633360  0.30599346  0.56889153    -0.15100
C2477       C  0.02967245  0.30703161  0.54350909     0.35530
C2478       C  0.04840066  0.30773746  0.52529995    -0.26470
C2479       C  0.07364023  0.30718513  0.53180945    -0.15710
C2480       C  0.08041122  0.30472942  0.55720881     0.36620
N2481       N  0.10598239  0.30348413  0.56520058    -0.89960
H2482       H  0.06678476  0.30322785  0.59493321     0.17730
H2483       H  0.04324870  0.30978391  0.50596804     0.17720
N2484       N  0.00384862  0.30779928  0.53635635    -0.88990
H2485       H  0.10848429  0.28646028  0.57428612     0.35100
H2486       H  0.11824458  0.30347163  0.55009164     0.40200
H2487       H  0.99571523  0.29096174  0.54182226     0.39820
H2488       H  0.00210105  0.30878543  0.51699737     0.34710
C2489       C  0.93302030  0.40942856  0.64639269    -0.27020
C2490       C  0.92603821  0.38547566  0.65412237    -0.15100
C2491       C  0.90212349  0.38232045  0.66550105     0.35530
C2492       C  0.88528803  0.40246045  0.66561018    -0.26470
C2493       C  0.89197277  0.42573786  0.65577274    -0.15710
C2494       C  0.91673004  0.42959882  0.64784277     0.36620
N2495       N  0.92529285  0.45403210  0.64108890    -0.89960
H2496       H  0.95145451  0.41251906  0.63880676     0.17730
H2497       H  0.86655578  0.39960074  0.67271263     0.17720
N2498       N  0.89381583  0.35954778  0.67687805    -0.88990
H2499       H  0.94400660  0.45364871  0.63554874     0.35100
H2500       H  0.92447210  0.46510781  0.65708697     0.40200
H2501       H  0.90720574  0.34561523  0.67646147     0.39820
H2502       H  0.87832009  0.35309261  0.66699278     0.34710
C2503       C  0.93666492  0.31034431  0.54305777    -0.27020
C2504       C  0.93049030  0.30244528  0.56698458    -0.15100
C2505       C  0.90714117  0.29103507  0.57129781     0.35530
C2506       C  0.88906856  0.29111016  0.55223744    -0.26470
C2507       C  0.89455003  0.30132287  0.52878340    -0.15710
C2508       C  0.91934995  0.30934164  0.52382422     0.36620
N2509       N  0.92771039  0.31654563  0.49950714    -0.89960
H2510       H  0.95491335  0.31821995  0.53943308     0.17730
H2511       H  0.87048854  0.28406099  0.55599174     0.17720
N2512       N  0.90170070  0.27991872  0.59496388    -0.88990
H2513       H  0.91956530  0.33346413  0.49451664     0.35100
H2514       H  0.92274656  0.30267318  0.48677517     0.40200
H2515       H  0.91397273  0.26499445  0.59739791     0.39820
H2516       H  0.88365300  0.27250650  0.59513362     0.34710
C2517       C  0.55182238  0.15729390  0.42974169    -0.27020
C2518       C  0.57668463  0.15566060  0.42187942    -0.15100
C2519       C  0.58244232  0.15606614  0.39628612     0.35530
C2520       C  0.56277659  0.15631066  0.37893793    -0.26470
C2521       C  0.53780498  0.15608973  0.38698423    -0.15710
C2522       C  0.53231186  0.15779813  0.41267211     0.36620
N2523       N  0.50730521  0.16011860  0.42216225    -0.89960
H2524       H  0.54747882  0.15748794  0.44947272     0.17730
H2525       H  0.56687916  0.15514987  0.35920134     0.17720
N2526       N  0.60793489  0.15429649  0.38810137    -0.88990
H2527       H  0.50294772  0.14363483  0.43154603     0.35100
H2528       H  0.49421936  0.16253455  0.40802286     0.40200
H2529       H  0.61705108  0.17060331  0.39359413     0.39820
H2530       H  0.60884856  0.15377675  0.36866326     0.34710
C2531       C  0.26767904  0.18585544  0.57900996    -0.27020
C2532       C  0.28677497  0.17793614  0.59517087    -0.15100
C2533       C  0.30816171  0.16654718  0.58513583     0.35530
C2534       C  0.30990928  0.16272683  0.55940230    -0.26470
C2535       C  0.29092580  0.17048211  0.54319593    -0.15710
C2536       C  0.26960072  0.18228462  0.55300479     0.36620
N2537       N  0.24997930  0.19026991  0.53666229    -0.89960
H2538       H  0.25122207  0.19471256  0.58672128     0.17730
H2539       H  0.32587088  0.15275769  0.55214904     0.17720
N2540       N  0.32762746  0.15774043  0.60113188    -0.88990
H2541       H  0.23569902  0.19883279  0.54682390     0.35100
H2542       H  0.24221793  0.17437956  0.52851575     0.40200
H2543       H  0.34429696  0.16632806  0.59574973     0.39820
H2544       H  0.32961767  0.13857710  0.59830036     0.34710
C2545       C  0.41275004  0.13256149  0.43142937    -0.27020
C2546       C  0.39158175  0.14738036  0.42780394    -0.15100
C2547       C  0.39038553  0.16318035  0.40670682     0.35530
C2548       C  0.41036035  0.16323925  0.38960859    -0.26470
C2549       C  0.43113852  0.14762331  0.39289764    -0.15710
C2550       C  0.43259342  0.13259701  0.41452449     0.36620
N2551       N  0.45366967  0.11688509  0.41990548    -0.89960
H2552       H  0.41379060  0.12052217  0.44760411     0.17730
H2553       H  0.40905559  0.17461589  0.37299533     0.17720
N2554       N  0.36901910  0.17849143  0.40144694    -0.88990
H2555       H  0.46101090  0.12261068  0.43699635     0.35100
H2556       H  0.46803384  0.11919070  0.40701250     0.40200
H2557       H  0.35531087  0.17673227  0.41512975     0.39820
H2558       H  0.36108183  0.17202991  0.38488748     0.34710
C2559       C  0.40777545  0.18366466  0.65422226    -0.27020
C2560       C  0.42177655  0.17129757  0.67250023    -0.15100
C2561       C  0.40966232  0.16307284  0.69443802     0.35530
C2562       C  0.38372002  0.16629093  0.69696029    -0.26470
C2563       C  0.36956853  0.17751260  0.67811256    -0.15710
C2564       C  0.38180933  0.18678943  0.65670752     0.36620
N2565       N  0.36769736  0.19788814  0.63685429    -0.89960
H2566       H  0.41688399  0.18967432  0.63723946     0.17730
H2567       H  0.37441414  0.15971424  0.71363684     0.17720
N2568       N  0.42368066  0.15163411  0.71416790    -0.88990
H2569       H  0.37918777  0.20154601  0.62153337     0.35100
H2570       H  0.36133748  0.21519189  0.64309656     0.40200
H2571       H  0.42820881  0.13356804  0.70854884     0.39820
H2572       H  0.41255115  0.14959227  0.73004563     0.34710
C2573       C  0.54926510  0.16535079  0.56300642    -0.27020
C2574       C  0.52981114  0.14790669  0.56110392    -0.15100
C2575       C  0.52888121  0.13182678  0.54025746     0.35530
C2576       C  0.54841404  0.13210845  0.52306178    -0.26470
C2577       C  0.56864042  0.14839586  0.52569309    -0.15710
C2578       C  0.56883728  0.16574320  0.54540392     0.36620
N2579       N  0.58957693  0.18243573  0.54838960    -0.89960
H2580       H  0.54985380  0.17775911  0.57890150     0.17730
H2581       H  0.54796966  0.11914593  0.50758108     0.17720
N2582       N  0.50841029  0.11508746  0.53579068    -0.88990
H2583       H  0.58730033  0.19326903  0.56440993     0.35100
H2584       H  0.58947569  0.19473036  0.53331617     0.40200
H2585       H  0.49371605  0.11786976  0.54823847     0.39820
H2586       H  0.51494548  0.09692139  0.53828822     0.34710
C2587       C  0.38181838  0.13872142  0.55783341    -0.27020
C2588       C  0.38614408  0.15101867  0.53521624    -0.15100
C2589       C  0.40855107  0.16417850  0.53143006     0.35530
C2590       C  0.42683077  0.16394247  0.55012352    -0.26470
C2591       C  0.42295688  0.15074113  0.57227754    -0.15710
C2592       C  0.40008575  0.13855807  0.57656591     0.36620
N2593       N  0.39606255  0.12514060  0.59937769    -0.89960
H2594       H  0.36461795  0.12842595  0.56045183     0.17730
H2595       H  0.44455060  0.17318629  0.54702696     0.17720
N2596       N  0.41281650  0.17721529  0.50843719    -0.88990
H2597       H  0.37839840  0.11685849  0.59942851     0.35100
H2598       H  0.39611873  0.13810599  0.61390595     0.40200
H2599       H  0.41378558  0.16398736  0.49418149     0.39820
H2600       H  0.43011113  0.18622871  0.50878431     0.34710
C2601       C  0.41517912  0.02764999  0.31164093    -0.27020
C2602       C  0.39006759  0.03468790  0.30958884    -0.15100
C2603       C  0.38404223  0.06025324  0.30644292     0.35530
C2604       C  0.40344126  0.07787719  0.30593988    -0.26470
C2605       C  0.42835590  0.07077792  0.30977735    -0.15710
C2606       C  0.43434192  0.04530243  0.31195525     0.36620
N2607       N  0.45986900  0.03731367  0.31408978    -0.89960
H2608       H  0.41989263  0.00814255  0.31372567     0.17730
H2609       H  0.39883567  0.09744934  0.30408466     0.17720
N2610       N  0.35880059  0.06923940  0.30480461    -0.88990
H2611       H  0.46116958  0.01796721  0.31227840     0.35100
H2612       H  0.46581829  0.04134831  0.33215478     0.40200
H2613       H  0.34587035  0.05527445  0.30859535     0.39820
H2614       H  0.35622756  0.08252415  0.31879560     0.34710
C2615       C  0.29133097  0.03550520  0.40219606    -0.27020
C2616       C  0.31210248  0.03480411  0.38612680    -0.15100
C2617       C  0.33002027  0.05416879  0.38754055     0.35530
C2618       C  0.32814682  0.07216874  0.40613749    -0.26470
C2619       C  0.30846107  0.07185443  0.42311601    -0.15710
C2620       C  0.28928640  0.05406216  0.42071384     0.36620
N2621       N  0.26871375  0.05406172  0.43789868    -0.89960
H2622       H  0.27731442  0.02101270  0.40106167     0.17730
H2623       H  0.34262529  0.08620258  0.40772431     0.17720
N2624       N  0.35048634  0.05554922  0.37038288    -0.88990
H2625       H  0.25652508  0.03938411  0.43393887     0.35100
H2626       H  0.25866025  0.07049385  0.43504833     0.40200
H2627       H  0.36710021  0.05464350  0.38052538     0.39820
H2628       H  0.34980417  0.07290630  0.36162920     0.34710
C2629       C  0.43396737  0.90940830  0.29918007    -0.27020
C2630       C  0.42761476  0.88608231  0.30904644    -0.15100
C2631       C  0.40316081  0.88214813  0.31807271     0.35530
C2632       C  0.38625632  0.90175667  0.31859214    -0.26470
C2633       C  0.39298273  0.92557032  0.31040917    -0.15710
C2634       C  0.41711929  0.92943938  0.30004052     0.36620
N2635       N  0.42581562  0.95330526  0.29147397    -0.89960
H2636       H  0.45272694  0.91257686  0.29227638     0.17730
H2637       H  0.36768624  0.89842907  0.32595823     0.17720
N2638       N  0.39462483  0.85822886  0.32607293    -0.88990
H2639       H  0.44102140  0.95840354  0.30253746     0.35100
H2640       H  0.41257275  0.96724587  0.29388049     0.40200
H2641       H  0.40500483  0.85231592  0.34139229     0.39820
H2642       H  0.39726661  0.84595050  0.31126072     0.34710
C2643       C  0.30880303  0.05961369  0.65807094    -0.27020
C2644       C  0.29159597  0.04278277  0.66829675    -0.15100
C2645       C  0.27140898  0.05169375  0.68252949     0.35530
C2646       C  0.26903637  0.07757010  0.68648564    -0.26470
C2647       C  0.28628979  0.09433983  0.67605923    -0.15710
C2648       C  0.30643624  0.08519502  0.66191546     0.36620
N2649       N  0.32479408  0.10151319  0.65138980    -0.89960
H2650       H  0.32414941  0.05278472  0.64679452     0.17730
H2651       H  0.25350862  0.08472516  0.69728032     0.17720
N2652       N  0.25340046  0.03458249  0.69255638    -0.88990
H2653       H  0.31581312  0.11397920  0.63945579     0.35100
H2654       H  0.33298678  0.11167517  0.66583316     0.40200
H2655       H  0.24432997  0.02609615  0.67756671     0.39820
H2656       H  0.23971390  0.04419571  0.70258979     0.34710
C2657       C  0.41297002  0.02943364  0.63111707    -0.27020
C2658       C  0.39382605  0.03081405  0.64904424    -0.15100
C2659       C  0.39478544  0.05012794  0.66711480     0.35530
C2660       C  0.41407142  0.06784419  0.66608090    -0.26470
C2661       C  0.43224749  0.06674654  0.64731654    -0.15710
C2662       C  0.43205160  0.04705161  0.63010143     0.36620
N2663       N  0.45114662  0.04529778  0.61130224    -0.89960
H2664       H  0.41298150  0.01471868  0.61732690     0.17730
H2665       H  0.41427935  0.08307457  0.67932624     0.17720
N2666       N  0.37656004  0.05247317  0.68648814    -0.88990
H2667       H  0.44815586  0.02988377  0.59979136     0.35100
H2668       H  0.46810650  0.04222045  0.62036859     0.40200
H2669       H  0.35907140  0.05523648  0.67841324     0.39820
H2670       H  0.37632922  0.03599819  0.69683970     0.34710
C2671       C  0.29586342  0.04448706  0.56747292    -0.27020
C2672       C  0.31596593  0.02766133  0.56764989    -0.15100
C2673       C  0.33415344  0.02886572  0.54866736     0.35530
C2674       C  0.33256631  0.04756586  0.53066128    -0.26470
C2675       C  0.31333750  0.06521633  0.53112010    -0.15710
C2676       C  0.29440194  0.06344272  0.54931278     0.36620
N2677       N  0.27471158  0.08158429  0.55013839    -0.89960
H2678       H  0.28188492  0.04341057  0.58203483     0.17730
H2679       H  0.34685004  0.04874591  0.51638704     0.17720
N2680       N  0.35401457  0.01086598  0.54747486    -0.88990
H2681       H  0.26291813  0.07818902  0.56528936     0.35100
H2682       H  0.26387606  0.07923422  0.53415123     0.40200
H2683       H  0.36661697  0.01499296  0.56170939     0.39820
H2684       H  0.36405158  0.01276182  0.53087283     0.34710
C2685       C  0.29991565  0.90647695  0.42867687    -0.27020
C2686       C  0.31364321  0.88457957  0.42440622    -0.15100
C2687       C  0.32480395  0.88084604  0.40072578     0.35530
C2688       C  0.32331158  0.89953748  0.38264487    -0.26470
C2689       C  0.31109883  0.92202897  0.38763165    -0.15710
C2690       C  0.29871306  0.92536635  0.41052747     0.36620
N2691       N  0.28574743  0.94826171  0.41551476    -0.89960
H2692       H  0.29110831  0.90935935  0.44662084     0.17730
H2693       H  0.33263335  0.89688718  0.36490870     0.17720
N2694       N  0.33761674  0.85827420  0.39439060    -0.88990
H2695       H  0.27783378  0.94790632  0.43331549     0.35100
H2696       H  0.27094320  0.94951230  0.40292382     0.40200
H2697       H  0.32569484  0.84322243  0.39776322     0.39820
H2698       H  0.35349476  0.85652528  0.40549051     0.34710
C2699       C  0.38554215  0.79188328  0.40360347    -0.27020
C2700       C  0.39112761  0.80340512  0.42646986    -0.15100
C2701       C  0.41531043  0.81299516  0.43030464     0.35530
C2702       C  0.43253432  0.81276032  0.41097043    -0.26470
C2703       C  0.42666152  0.80296264  0.38751478    -0.15710
C2704       C  0.40327066  0.79125354  0.38409282     0.36620
N2705       N  0.39725611  0.77953869  0.36084777    -0.89960
H2706       H  0.36713913  0.78404791  0.40068790     0.17730
H2707       H  0.45069742  0.82085487  0.41443740     0.17720
N2708       N  0.42262992  0.82327824  0.45381063    -0.88990
H2709       H  0.37904564  0.77255242  0.36124818     0.35100
H2710       H  0.40900160  0.76413203  0.35882069     0.40200
H2711       H  0.42778478  0.84184853  0.45100354     0.39820
H2712       H  0.43839099  0.81361536  0.45994914     0.34710
C2713       C  0.33536550  0.89228183  0.54528011    -0.27020
C2714       C  0.31259523  0.88231837  0.53736505    -0.15100
C2715       C  0.29036436  0.88911393  0.54983735     0.35530
C2716       C  0.29140776  0.90703655  0.56905888    -0.26470
C2717       C  0.31417063  0.91824759  0.57562051    -0.15710
C2718       C  0.33647886  0.90996378  0.56424294     0.36620
N2719       N  0.36028651  0.91978638  0.57174904    -0.89960
H2720       H  0.35255278  0.88638252  0.53638523     0.17730
H2721       H  0.27433675  0.91320798  0.57796238     0.17720
N2722       N  0.26685620  0.87865267  0.54236721    -0.88990
H2723       H  0.37468364  0.91250831  0.56078314     0.35100
H2724       H  0.36360472  0.91356894  0.58984044     0.40200
H2725       H  0.26321510  0.88475795  0.52425524     0.39820
H2726       H  0.25242238  0.88551128  0.55355311     0.34710
C2727       C  0.57723782  0.90289752  0.29992204    -0.27020
C2728       C  0.56980549  0.92714732  0.30616114    -0.15100
C2729       C  0.54455106  0.93216066  0.31125123     0.35530
C2730       C  0.52732530  0.91246131  0.31140581    -0.26470
C2731       C  0.53483483  0.88786398  0.30644769    -0.15710
C2732       C  0.55988201  0.88323756  0.29973131     0.36620
N2733       N  0.56805572  0.85855471  0.29386831    -0.89960
H2734       H  0.59672992  0.89905618  0.29606593     0.17730
H2735       H  0.50799559  0.91623323  0.31604052     0.17720
N2736       N  0.53663133  0.95715374  0.31676991    -0.88990
H2737       H  0.58230653  0.85379295  0.30625820     0.35100
H2738       H  0.57565802  0.85877649  0.27593535     0.40200
H2739       H  0.54490699  0.96245811  0.33356372     0.39820
H2740       H  0.51733720  0.95776414  0.31964860     0.34710
C2741       C  0.55197748  0.03230084  0.29539386    -0.27020
C2742       C  0.57525970  0.03685845  0.30629670    -0.15100
C2743       C  0.58031391  0.06035809  0.31702578     0.35530
C2744       C  0.56119890  0.07809219  0.31813596    -0.26470
C2745       C  0.53746247  0.07319623  0.30820512    -0.15710
C2746       C  0.53309043  0.05042599  0.29580304     0.36620
N2747       N  0.50910420  0.04513020  0.28510648    -0.89960
H2748       H  0.54829758  0.01420805  0.28722034     0.17730
H2749       H  0.56474774  0.09567426  0.32741292     0.17720
N2750       N  0.60401426  0.06645452  0.32803838    -0.88990
H2751       H  0.50855900  0.02693791  0.27818255     0.35100
H2752       H  0.50687526  0.05684937  0.26974303     0.40200
H2753       H  0.61685639  0.05197180  0.32617806     0.39820
H2754       H  0.61142153  0.08151041  0.31814051     0.34710
C2755       C  0.63354415  0.02788985  0.40992783    -0.27020
C2756       C  0.65012117  0.02904436  0.38982009    -0.15100
C2757       C  0.66814206  0.04817913  0.38874235     0.35530
C2758       C  0.66829231  0.06666069  0.40744427    -0.26470
C2759       C  0.65070478  0.06609941  0.42684787    -0.15710
C2760       C  0.63362640  0.04617085  0.42847464     0.36620
N2761       N  0.61642686  0.04454251  0.44902179    -0.89960
H2762       H  0.61995818  0.01294499  0.41076730     0.17730
H2763       H  0.68132825  0.08204436  0.40629999     0.17720
N2764       N  0.68505683  0.04960419  0.36800259    -0.88990
H2765       H  0.60639951  0.02785281  0.44829074     0.35100
H2766       H  0.60327739  0.05875888  0.44702886     0.40200
H2767       H  0.69680978  0.03409777  0.36884915     0.39820
H2768       H  0.69650106  0.06529813  0.36958165     0.34710
C2769       C  0.40258309  0.87964019  0.64475497    -0.27020
C2770       C  0.42720710  0.88619203  0.65056710    -0.15100
C2771       C  0.43249613  0.91040795  0.65928317     0.35530
C2772       C  0.41320282  0.92815155  0.66022970    -0.26470
C2773       C  0.38887892  0.92199807  0.65281536    -0.15710
C2774       C  0.38325600  0.89709825  0.64615547     0.36620
N2775       N  0.35824129  0.88879331  0.64107923    -0.89960
H2776       H  0.39837458  0.86081800  0.63882245     0.17730
H2777       H  0.41747282  0.94722928  0.66526307     0.17720
N2778       N  0.45767121  0.91738767  0.66533514    -0.88990
H2779       H  0.35728573  0.88361912  0.62235223     0.35100
H2780       H  0.34509533  0.90282090  0.64407014     0.40200
H2781       H  0.46280003  0.90753949  0.68130161     0.39820
H2782       H  0.45856798  0.93625886  0.67005001     0.34710
C2783       C  0.43011548  0.79430299  0.55058730    -0.27020
C2784       C  0.42377497  0.80320290  0.57425964    -0.15100
C2785       C  0.39917363  0.81150740  0.57891274     0.35530
C2786       C  0.38211712  0.81234311  0.55915991    -0.26470
C2787       C  0.38881977  0.80470586  0.53501384    -0.15710
C2788       C  0.41309643  0.79492698  0.53083254     0.36620
N2789       N  0.42183379  0.78674079  0.50684473    -0.89960
H2790       H  0.44901638  0.78797002  0.54705965     0.17730
H2791       H  0.36357121  0.81970069  0.56256988     0.17720
N2792       N  0.39119834  0.82041098  0.60290632    -0.88990
H2793       H  0.43704147  0.79792997  0.50197931     0.35100
H2794       H  0.40863839  0.78922851  0.49290035     0.40200
H2795       H  0.40532554  0.81892915  0.61615906     0.39820
H2796       H  0.37674205  0.80882302  0.60899709     0.34710
C2797       C  0.54699798  0.81695412  0.43145821    -0.27020
C2798       C  0.56903488  0.80384877  0.42664667    -0.15100
C2799       C  0.57166181  0.79042601  0.40414641     0.35530
C2800       C  0.55216166  0.79115031  0.38672307    -0.26470
C2801       C  0.53089470  0.80587573  0.39089675    -0.15710
C2802       C  0.52789300  0.81818326  0.41397271     0.36620
N2803       N  0.50615341  0.83264891  0.42015036    -0.89960
H2804       H  0.54506958  0.82739714  0.44862566     0.17730
H2805       H  0.55424097  0.78121063  0.36929915     0.17720
N2806       N  0.59397864  0.77690132  0.39791780    -0.88990
H2807       H  0.49757901  0.82419588  0.43547523     0.35100
H2808       H  0.49303347  0.83253292  0.40589202     0.40200
H2809       H  0.60710698  0.77782774  0.41219761     0.39820
H2810       H  0.60204607  0.78553511  0.38242180     0.34710
C2811       C  0.62413772  0.89367894  0.41175755    -0.27020
C2812       C  0.64659203  0.88302357  0.41971405    -0.15100
C2813       C  0.66912944  0.88952698  0.40757359     0.35530
C2814       C  0.66872967  0.90787950  0.38878431    -0.26470
C2815       C  0.64631688  0.91974311  0.38226506    -0.15710
C2816       C  0.62376747  0.91171236  0.39315002     0.36620
N2817       N  0.60031272  0.92185134  0.38532327    -0.89960
H2818       H  0.60661500  0.88816609  0.42024758     0.17730
H2819       H  0.68602604  0.91376279  0.38011913     0.17720
N2820       N  0.69230812  0.87825723  0.41489193    -0.88990
H2821       H  0.59154381  0.92975256  0.40083100     0.35100
H2822       H  0.58915904  0.90722107  0.37890960     0.40200
H2823       H  0.69608403  0.88392358  0.43312244     0.39820
H2824       H  0.70697587  0.88487713  0.40386670     0.34710
C2825       C  0.57692361  0.80573206  0.55730312    -0.27020
C2826       C  0.56980647  0.80411949  0.53223519    -0.15100
C2827       C  0.54425566  0.80161441  0.52614758     0.35530
C2828       C  0.52630990  0.80169347  0.54524370    -0.26470
C2829       C  0.53334372  0.80508027  0.57007091    -0.15710
C2830       C  0.55884072  0.80655856  0.57631984     0.36620
N2831       N  0.56614607  0.80943472  0.60187886    -0.89960
H2832       H  0.59651501  0.80761271  0.56193179     0.17730
H2833       H  0.50665391  0.80056876  0.54062633     0.17720
N2834       N  0.53658442  0.79914553  0.50063006    -0.88990
H2835       H  0.58556871  0.81056305  0.60334925     0.35100
H2836       H  0.56075252  0.79327417  0.61130668     0.40200
H2837       H  0.53906007  0.81644585  0.49211214     0.39820
H2838       H  0.51746623  0.79538582  0.49959576     0.34710
C2839       C  0.52982829  0.04454411  0.64374939    -0.27020
C2840       C  0.53706586  0.06923348  0.64816085    -0.15100
C2841       C  0.56164423  0.07416592  0.65618602     0.35530
C2842       C  0.57893741  0.05450104  0.65797116    -0.26470
C2843       C  0.57195048  0.02999311  0.65198133    -0.15710
C2844       C  0.54682458  0.02487305  0.64590594     0.36620
N2845       N  0.53871395  0.99968634  0.64164741    -0.89960
H2846       H  0.51074341  0.04055038  0.63847375     0.17730
H2847       H  0.59812667  0.05861205  0.66281482     0.17720
N2848       N  0.56943756  0.09913343  0.66140043    -0.88990
H2849       H  0.51972609  0.99915157  0.63722247     0.35100
H2850       H  0.54077243  0.98994696  0.65837020     0.40200
H2851       H  0.57596842  0.09974118  0.67971729     0.39820
H2852       H  0.58435996  0.10345286  0.64959799     0.34710
C2853       C  0.66727273  0.04762070  0.56771811    -0.27020
C2854       C  0.64612800  0.03237516  0.56977764    -0.15100
C2855       C  0.62593941  0.03562886  0.55334707     0.35530
C2856       C  0.62706339  0.05436811  0.53546942    -0.26470
C2857       C  0.64803330  0.06988814  0.53321226    -0.15710
C2858       C  0.66834901  0.06669578  0.54974903     0.36620
N2859       N  0.68999923  0.08242682  0.54815169    -0.89960
H2860       H  0.68266511  0.04499805  0.58051134     0.17730
H2861       H  0.61132411  0.05667669  0.52305196     0.17720
N2862       N  0.60448545  0.01952531  0.55456838    -0.88990
H2863       H  0.70365150  0.07660123  0.56075345     0.35100
H2864       H  0.68464175  0.10025915  0.55385733     0.40200
H2865       H  0.61038250  0.00155729  0.54989730     0.39820
H2866       H  0.59115209  0.02461019  0.54132457     0.34710
C2867       C  0.57292543  0.90389567  0.62634292    -0.27020
C2868       C  0.57678170  0.91945810  0.64707441    -0.15100
C2869       C  0.56271489  0.91514082  0.66899111     0.35530
C2870       C  0.54383077  0.89681753  0.66880438    -0.26470
C2871       C  0.53881870  0.88299499  0.64721606    -0.15710
C2872       C  0.55397532  0.88605053  0.62604502     0.36620
N2873       N  0.55010475  0.87100066  0.60424042    -0.89960
H2874       H  0.58406259  0.90625954  0.60968562     0.17730
H2875       H  0.53237077  0.89396029  0.68519656     0.17720
N2876       N  0.56710120  0.92963829  0.69103802    -0.88990
H2877       H  0.56432496  0.87391463  0.59121277     0.35100
H2878       H  0.53366178  0.87709718  0.59578265     0.40200
H2879       H  0.58494738  0.92515298  0.69747389     0.39820
H2880       H  0.55465985  0.92454336  0.70516169     0.34710
C2881       C  0.62591542  0.91307971  0.56412095    -0.27020
C2882       C  0.64931510  0.92306048  0.56978740    -0.15100
C2883       C  0.67067786  0.91385035  0.55754923     0.35530
C2884       C  0.66785623  0.89554833  0.53883982    -0.26470
C2885       C  0.64413557  0.88604449  0.53256913    -0.15710
C2886       C  0.62301303  0.89442817  0.54622018     0.36620
N2887       N  0.59848312  0.88449183  0.54169277    -0.89960
H2888       H  0.60958780  0.91999709  0.57383737     0.17730
H2889       H  0.68418493  0.88894057  0.52892948     0.17720
N2890       N  0.69490552  0.92359035  0.56355367    -0.88990
H2891       H  0.58494580  0.89420137  0.55183455     0.35100
H2892       H  0.59824214  0.86627263  0.54856470     0.40200
H2893       H  0.69514397  0.94238560  0.55849049     0.39820
H2894       H  0.70866209  0.91477370  0.55290522     0.34710
C2895       C  0.26505490  0.37949230  0.79067421    -0.27020
C2896       C  0.28321562  0.36625248  0.77730469    -0.15100
C2897       C  0.30281738  0.37940324  0.76552815     0.35530
C2898       C  0.30448874  0.40537985  0.76853643    -0.26470
C2899       C  0.28721360  0.41835687  0.78332385    -0.15710
C2900       C  0.26668373  0.40540338  0.79359425     0.36620
N2901       N  0.24789907  0.41856740  0.80749657    -0.89960
H2902       H  0.24957187  0.36953448  0.79903103     0.17730
H2903       H  0.32038639  0.41521027  0.76083679     0.17720
N2904       N  0.32159368  0.36626916  0.75157910    -0.88990
H2905       H  0.23418324  0.40631065  0.81396772     0.35100
H2906       H  0.23905229  0.43082305  0.79523759     0.40200
H2907       H  0.33131176  0.35487071  0.76400838     0.39820
H2908       H  0.33465029  0.37869604  0.74414530     0.34710
C2909       C  0.29240686  0.56684020  0.90985139    -0.27020
C2910       C  0.31567847  0.57453945  0.91912640    -0.15100
C2911       C  0.33777208  0.56468079  0.90877492     0.35530
C2912       C  0.33617643  0.54562290  0.89119565    -0.26470
C2913       C  0.31303480  0.53663695  0.88313971    -0.15710
C2914       C  0.29085456  0.54782123  0.89183330     0.36620
N2915       N  0.26700205  0.53919881  0.88318479    -0.89960
H2916       H  0.27546916  0.57476392  0.91753528     0.17730
H2917       H  0.35319466  0.53756478  0.88379506     0.17720
N2918       N  0.36178449  0.57403902  0.91621331    -0.88990
H2919       H  0.25260462  0.54947669  0.89139854     0.35100
H2920       H  0.26481603  0.52081139  0.88920042     0.40200
H2921       H  0.36294325  0.59249280  0.91013506     0.39820
H2922       H  0.37613815  0.56439474  0.90719149     0.34710
C2923       C  0.41380691  0.56890083  0.79584656    -0.27020
C2924       C  0.43423478  0.56525337  0.81176271    -0.15100
C2925       C  0.43530465  0.54350377  0.82658933     0.35530
C2926       C  0.41522074  0.52689470  0.82628208    -0.26470
C2927       C  0.39412824  0.53125871  0.81154465    -0.15710
C2928       C  0.39338087  0.55252034  0.79602177     0.36620
N2929       N  0.37174296  0.55906507  0.78169080    -0.89960
H2930       H  0.41302011  0.58539011  0.78427089     0.17730
H2931       H  0.41596210  0.51046669  0.83799773     0.17720
N2932       N  0.45627151  0.53765917  0.84224545    -0.88990
H2933       H  0.37656793  0.55783245  0.76287207     0.35100
H2934       H  0.35708411  0.54668187  0.78476603     0.40200
H2935       H  0.47058755  0.55068402  0.84044462     0.39820
H2936       H  0.46370654  0.52075320  0.83603741     0.34710
C2937       C  0.43683446  0.64367127  0.91293395    -0.27020
C2938       C  0.43050763  0.65156898  0.88881804    -0.15100
C2939       C  0.40663492  0.66199874  0.88450804     0.35530
C2940       C  0.38915002  0.66251077  0.90406176    -0.26470
C2941       C  0.39512190  0.65282409  0.92749724    -0.15710
C2942       C  0.41932047  0.64401518  0.93225373     0.36620
N2943       N  0.42584757  0.63502411  0.95660450    -0.89960
H2944       H  0.45533876  0.63641441  0.91658853     0.17730
H2945       H  0.37056391  0.66964093  0.90076518     0.17720
N2946       N  0.39972643  0.67076318  0.86019158    -0.88990
H2947       H  0.44465929  0.62989445  0.95721377     0.35100
H2948       H  0.41557349  0.61881332  0.95993826     0.40200
H2949       H  0.41004229  0.68689647  0.85662858     0.39820
H2950       H  0.38095812  0.67608706  0.85988858     0.34710
C2951       C  0.57889451  0.65357079  0.90169131    -0.27020
C2952       C  0.57105194  0.65339567  0.92652178    -0.15100
C2953       C  0.54540772  0.65465678  0.93226876     0.35530
C2954       C  0.52791387  0.65484750  0.91275329    -0.26470
C2955       C  0.53580719  0.65349229  0.88787914    -0.15710
C2956       C  0.56145037  0.65387670  0.88227242     0.36620
N2957       N  0.56963210  0.65416419  0.85686600    -0.89960
H2958       H  0.59867738  0.65272427  0.89749024     0.17730
H2959       H  0.50812097  0.65452060  0.91694894     0.17720
N2960       N  0.53726968  0.65454768  0.95778527    -0.88990
H2961       H  0.58910820  0.65461828  0.85610659     0.35100
H2962       H  0.56347204  0.67089135  0.84904685     0.40200
H2963       H  0.54230271  0.63741427  0.96553122     0.39820
H2964       H  0.51780825  0.65558927  0.95879075     0.34710
C2965       C  0.55206781  0.52894666  0.80195172    -0.27020
C2966       C  0.57734837  0.53577036  0.80149073    -0.15100
C2967       C  0.58380008  0.56140362  0.79986750     0.35530
C2968       C  0.56462874  0.57926778  0.79982302    -0.26470
C2969       C  0.53960140  0.57224818  0.80263714    -0.15710
C2970       C  0.53316403  0.54686555  0.80268175     0.36620
N2971       N  0.50740909  0.53942933  0.80401389    -0.89960
H2972       H  0.54705182  0.50941713  0.80265366     0.17730
H2973       H  0.56942322  0.59880063  0.79928839     0.17720
N2974       N  0.60917221  0.57022061  0.79968015    -0.88990
H2975       H  0.50582781  0.52002263  0.80412258     0.35100
H2976       H  0.49862797  0.54564208  0.78780007     0.40200
H2977       H  0.62203983  0.55578089  0.80094188     0.39820
H2978       H  0.61175188  0.58107810  0.81563280     0.34710
C2979       C  0.62848267  0.55128312  0.88920814    -0.27020
C2980       C  0.64905197  0.53522710  0.88617970    -0.15100
C2981       C  0.67081594  0.53966965  0.90050814     0.35530
C2982       C  0.67086204  0.55918512  0.91819810    -0.26470
C2983       C  0.64955539  0.57389973  0.92205234    -0.15710
C2984       C  0.62851309  0.57040739  0.90687065     0.36620
N2985       N  0.60710696  0.58633518  0.90956229    -0.89960
H2986       H  0.61189485  0.54876413  0.87799515     0.17730
H2987       H  0.68708949  0.56213561  0.92983820     0.17720
N2988       N  0.69256533  0.52431202  0.89746414    -0.88990
H2989       H  0.59289750  0.58103853  0.89734086     0.35100
H2990       H  0.61257844  0.60424773  0.90423223     0.40200
H2991       H  0.68818236  0.50662104  0.90430906     0.39820
H2992       H  0.70722004  0.53093877  0.90845580     0.34710
C2993       C  0.62704582  0.39072732  0.90756612    -0.27020
C2994       C  0.64756840  0.38750593  0.92357341    -0.15100
C2995       C  0.66955594  0.40155400  0.91929838     0.35530
C2996       C  0.66996003  0.41908750  0.89980903    -0.26470
C2997       C  0.64877988  0.42308419  0.88509260    -0.15710
C2998       C  0.62743305  0.40831620  0.88846911     0.36620
N2999       N  0.60617034  0.41131632  0.87244762    -0.89960
H3000       H  0.61032935  0.37964828  0.91002160     0.17730
H3001       H  0.68637336  0.43051469  0.89685965     0.17720
N3002       N  0.69111728  0.39847063  0.93487042    -0.88990
H3003       H  0.59170257  0.39935704  0.87773376     0.35100
H3004       H  0.61162126  0.40582756  0.85457034     0.40200
H3005       H  0.68654710  0.40532746  0.95251643     0.39820
H3006       H  0.70591338  0.40941560  0.92841202     0.34710
C3007       C  0.27217864  0.30120207  0.90240568    -0.27020
C3008       C  0.28725314  0.28412129  0.91529047    -0.15100
C3009       C  0.29850426  0.26451583  0.90173241     0.35530
C3010       C  0.29601474  0.26337467  0.87574712    -0.26470
C3011       C  0.28210328  0.28121248  0.86268871    -0.15710
C3012       C  0.26953945  0.29993096  0.87633326     0.36620
N3013       N  0.25507879  0.31844957  0.86372484    -0.89960
H3014       H  0.26365078  0.31657439  0.91234207     0.17730
H3015       H  0.30517816  0.24842455  0.86572146     0.17720
N3016       N  0.31292042  0.24588038  0.91424385    -0.88990
H3017       H  0.26262199  0.33591708  0.86789664     0.35100
H3018       H  0.23691288  0.31785178  0.87083287     0.40200
H3019       H  0.33097994  0.24612523  0.90683893     0.39820
H3020       H  0.30502974  0.22850476  0.91034939     0.34710
C3021       C  0.29174704  0.40187349  0.91851810    -0.27020
C3022       C  0.31075181  0.38389547  0.91855082    -0.15100
C3023       C  0.32880587  0.38411125  0.89949813     0.35530
C3024       C  0.32856262  0.40296283  0.88177598    -0.26470
C3025       C  0.31101626  0.42239640  0.88279983    -0.15710
C3026       C  0.29161790  0.42122682  0.90071248     0.36620
N3027       N  0.27266057  0.44012765  0.90157729    -0.89960
H3028       H  0.27772899  0.40148026  0.93307651     0.17730
H3029       H  0.34309692  0.40295227  0.86771705     0.17720
N3030       N  0.34802626  0.36566678  0.89801417    -0.88990
H3031       H  0.26054086  0.43703167  0.91653496     0.35100
H3032       H  0.26191521  0.43832604  0.88545054     0.40200
H3033       H  0.33956592  0.34813689  0.89788596     0.39820
H3034       H  0.35925207  0.36717513  0.91380295     0.34710
C3035       C  0.40858856  0.26972011  0.79442776    -0.27020
C3036       C  0.42040922  0.28866022  0.78079290    -0.15100
C3037       C  0.40607817  0.30284873  0.76388989     0.35530
C3038       C  0.38024815  0.29933616  0.76249457    -0.26470
C3039       C  0.36807620  0.28152222  0.77725689    -0.15710
C3040       C  0.38263728  0.26577596  0.79268935     0.36620
N3041       N  0.37107393  0.24658933  0.80738079    -0.89960
H3042       H  0.41939283  0.25873787  0.80744201     0.17730
H3043       H  0.36962896  0.31093876  0.74985718     0.17720
N3044       N  0.41756115  0.32133015  0.74840562    -0.88990
H3045       H  0.38412815  0.23816987  0.81911860     0.35100
H3046       H  0.36515832  0.23266356  0.79513312     0.40200
H3047       H  0.40930752  0.33853051  0.75237180     0.39820
H3048       H  0.41372861  0.31692110  0.72984236     0.34710
C3049       C  0.40355757  0.38204425  0.80631428    -0.27020
C3050       C  0.42860781  0.38914487  0.80890773    -0.15100
C3051       C  0.43514650  0.41450131  0.80923016     0.35530
C3052       C  0.41626471  0.43247721  0.80807223    -0.26470
C3053       C  0.39108092  0.42552920  0.80642313    -0.15710
C3054       C  0.38458912  0.40011397  0.80491719     0.36620
N3055       N  0.35885617  0.39278251  0.80299224    -0.89960
H3056       H  0.39880713  0.36242388  0.80599985     0.17730
H3057       H  0.42113139  0.45204420  0.80919025     0.17720
N3058       N  0.46086221  0.42183573  0.81151373    -0.88990
H3059       H  0.35734865  0.37339302  0.80204106     0.35100
H3060       H  0.34980272  0.39825900  0.81935627     0.40200
H3061       H  0.46709873  0.41606736  0.82901440     0.39820
H3062       H  0.46251103  0.44123485  0.81118216     0.34710
C3063       C  0.53206034  0.41318650  0.82117927    -0.27020
C3064       C  0.53503821  0.39147507  0.80687175    -0.15100
C3065       C  0.55564249  0.38981983  0.79037004     0.35530
C3066       C  0.57363140  0.40893495  0.79001618    -0.26470
C3067       C  0.57116916  0.42964198  0.80567012    -0.15710
C3068       C  0.54979005  0.43224321  0.82065987     0.36620
N3069       N  0.54655063  0.45408676  0.83583711    -0.89960
H3070       H  0.51602304  0.41522654  0.83330288     0.17730
H3071       H  0.59007526  0.40703239  0.77839127     0.17720
N3072       N  0.55877682  0.36870206  0.77438983    -0.88990
H3073       H  0.52997368  0.45302241  0.84607658     0.35100
H3074       H  0.54465678  0.46928298  0.82384897     0.40200
H3075       H  0.55907208  0.37506441  0.75600472     0.39820
H3076       H  0.57619015  0.36076626  0.77812241     0.34710
C3077       C  0.52711033  0.31606460  0.91207612    -0.27020
C3078       C  0.53366605  0.30844544  0.88816049    -0.15100
C3079       C  0.55773010  0.29885847  0.88357754     0.35530
C3080       C  0.57553557  0.29917451  0.90285735    -0.26470
C3081       C  0.56936557  0.30827205  0.92664874    -0.15710
C3082       C  0.54435357  0.31564159  0.93137740     0.36620
N3083       N  0.53546498  0.32192284  0.95568758    -0.89960
H3084       H  0.50842886  0.32288586  0.91572668     0.17730
H3085       H  0.59441355  0.29296980  0.89909678     0.17720
N3086       N  0.56416675  0.28948575  0.85937349    -0.88990
H3087       H  0.54405414  0.33825454  0.96180626     0.35100
H3088       H  0.53965500  0.30708833  0.96752976     0.40200
H3089       H  0.55300613  0.27389267  0.85594842     0.39820
H3090       H  0.58268857  0.28336854  0.85903198     0.34710
C3091       C  0.40262947  0.29981313  0.87969349    -0.27020
C3092       C  0.42754278  0.30394226  0.88657213    -0.15100
C3093       C  0.43374327  0.30537256  0.91208708     0.35530
C3094       C  0.41472786  0.30456436  0.93007401    -0.26470
C3095       C  0.38966017  0.30246036  0.92313563    -0.15710
C3096       C  0.38351047  0.29937279  0.89765676     0.36620
N3097       N  0.35824995  0.29590218  0.88934720    -0.89960
H3098       H  0.39780505  0.29829934  0.86016198     0.17730
H3099       H  0.41936914  0.30691792  0.94957262     0.17720
N3100       N  0.45932458  0.30820633  0.91959186    -0.88990
H3101       H  0.35361193  0.31090228  0.87786924     0.35100
H3102       H  0.34568046  0.29597355  0.90420244     0.40200
H3103       H  0.46888417  0.29212429  0.91414592     0.39820
H3104       H  0.46071639  0.30922540  0.93897799     0.34710
C3105       C  0.33619719  0.53425237  0.05248782    -0.27020
C3106       C  0.31507173  0.53222333  0.06789768    -0.15100
C3107       C  0.29442282  0.54808036  0.06348523     0.35530
C3108       C  0.29566991  0.56562010  0.04386849    -0.26470
C3109       C  0.31714000  0.56755634  0.02891680    -0.15710
C3110       C  0.33735718  0.55147368  0.03322218     0.36620
N3111       N  0.35919992  0.55235834  0.01778129    -0.89960
H3112       H  0.35229262  0.52237839  0.05531687     0.17730
H3113       H  0.28018759  0.57817445  0.04063091     0.17720
N3114       N  0.27246470  0.54646820  0.07878529    -0.88990
H3115       H  0.36168503  0.53481455  0.00970087     0.35100
H3116       H  0.37460159  0.55600995  0.02914064     0.40200
H3117       H  0.26422604  0.52914305  0.07543036     0.39820
H3118       H  0.25939368  0.55989005  0.07345149     0.34710
C3119       C  0.29627246  0.41473137  0.05966446    -0.27020
C3120       C  0.31883040  0.42658612  0.06585948    -0.15100
C3121       C  0.34057820  0.42111319  0.05206049     0.35530
C3122       C  0.33968786  0.40297980  0.03347066    -0.26470
C3123       C  0.31753902  0.39023191  0.02784901    -0.15710
C3124       C  0.29543445  0.39633888  0.04088357     0.36620
N3125       N  0.27252627  0.38348564  0.03557201    -0.89960
H3126       H  0.27950143  0.41925192  0.07000788     0.17730
H3127       H  0.35658340  0.39886703  0.02314343     0.17720
N3128       N  0.36351499  0.43425731  0.05671853    -0.88990
H3129       H  0.25805509  0.39035157  0.04670722     0.35100
H3130       H  0.27496621  0.36482877  0.04057435     0.40200
H3131       H  0.36063683  0.45292672  0.05199883     0.39820
H3132       H  0.37782395  0.42775374  0.04516638     0.34710
C3133       C  0.43308787  0.41194698  0.15566604    -0.27020
C3134       C  0.42630765  0.38695101  0.15293812    -0.15100
C3135       C  0.40087446  0.38013317  0.15312245     0.35530
C3136       C  0.38253913  0.39886916  0.15454680    -0.26470
C3137       C  0.38939894  0.42407975  0.15506744    -0.15710
C3138       C  0.41485810  0.43065104  0.15656971     0.36620
N3139       N  0.42205583  0.45638879  0.15820896    -0.89960
H3140       H  0.45268622  0.41697356  0.15570493     0.17730
H3141       H  0.36295443  0.39390591  0.15361402     0.17720
N3142       N  0.39384237  0.35432869  0.15168064    -0.88990
H3143       H  0.44148099  0.45810393  0.15889937     0.35100
H3144       H  0.41518553  0.46334993  0.17505781     0.40200
H3145       H  0.39923238  0.34764092  0.13421642     0.39820
H3146       H  0.37443858  0.35246072  0.15263332     0.34710
C3147       C  0.40006549  0.31648411  0.07562880    -0.27020
C3148       C  0.42414317  0.30770668  0.07033153    -0.15100
C3149       C  0.42918938  0.29706678  0.04675465     0.35530
C3150       C  0.41062927  0.29727875  0.02848761    -0.26470
C3151       C  0.38698827  0.30722221  0.03331691    -0.15710
C3152       C  0.38126855  0.31621493  0.05746187     0.36620
N3153       N  0.35723003  0.32631216  0.06388989    -0.89960
H3154       H  0.39607517  0.32442325  0.09374951     0.17730
H3155       H  0.41483810  0.28989709  0.01015974     0.17720
N3156       N  0.45269334  0.28570360  0.04067251    -0.88990
H3157       H  0.34957424  0.31497970  0.07776463     0.35100
H3158       H  0.34484585  0.32578576  0.04894312     0.40200
H3159       H  0.46521830  0.28642651  0.05548702     0.39820
H3160       H  0.46047144  0.29576869  0.02596467     0.34710
C3161       C  0.55740963  0.30757241  0.07544002    -0.27020
C3162       C  0.53322141  0.31357831  0.06737892    -0.15100
C3163       C  0.52880033  0.31817109  0.04190088     0.35530
C3164       C  0.54861734  0.31657598  0.02517667    -0.26470
C3165       C  0.57272261  0.31060310  0.03299172    -0.15710
C3166       C  0.57739114  0.30626583  0.05852527     0.36620
N3167       N  0.60202569  0.30155251  0.06801026    -0.89960
H3168       H  0.56091537  0.30464187  0.09509621     0.17730
H3169       H  0.54537437  0.32147975  0.00599346     0.17720
N3170       N  0.50492858  0.32576790  0.03238916    -0.88990
H3171       H  0.60199568  0.28372626  0.07582338     0.35100
H3172       H  0.61531620  0.30135607  0.05378698     0.40200
H3173       H  0.49127034  0.32621610  0.04621950     0.39820
H3174       H  0.49937843  0.31244145  0.01935091     0.34710
C3175       C  0.55076144  0.65986723  0.03108980    -0.27020
C3176       C  0.57536957  0.65289626  0.03640771    -0.15100
C3177       C  0.58201133  0.64634728  0.06110968     0.35530
C3178       C  0.56347549  0.64615815  0.07961753    -0.26470
C3179       C  0.53864446  0.65188053  0.07384126    -0.15710
C3180       C  0.53235677  0.65965013  0.04964837     0.36620
N3181       N  0.50718009  0.66687567  0.04399594    -0.89960
H3182       H  0.54579897  0.66497587  0.01221565     0.17730
H3183       H  0.56823007  0.64021223  0.09830482     0.17720
N3184       N  0.60683531  0.63875152  0.06790465    -0.88990
H3185       H  0.50562043  0.67204934  0.02530061     0.35100
H3186       H  0.50306541  0.68273246  0.05452773     0.40200
H3187       H  0.61899457  0.63893749  0.05273440     0.39820
H3188       H  0.60589222  0.62027967  0.07397599     0.34710
C3189       C  0.40318493  0.57363157  0.15773735    -0.27020
C3190       C  0.42756854  0.56710242  0.15051769    -0.15100
C3191       C  0.43318749  0.54180656  0.14554893     0.35530
C3192       C  0.41417524  0.52396196  0.14682904    -0.26470
C3193       C  0.38968474  0.53074237  0.15253568    -0.15710
C3194       C  0.38405663  0.55563332  0.15848759     0.36620
N3195       N  0.35882972  0.56262787  0.16419946    -0.89960
H3196       H  0.39880902  0.59294059  0.16164130     0.17730
H3197       H  0.41820519  0.50481596  0.14190517     0.17720
N3198       N  0.45807118  0.53421461  0.13898581    -0.88990
H3199       H  0.35771909  0.58171561  0.16781602     0.35100
H3200       H  0.35371317  0.55352624  0.18063264     0.40200
H3201       H  0.46118744  0.53953724  0.12053427     0.39820
H3202       H  0.45956900  0.51479914  0.13920089     0.34710
C3203       C  0.40759368  0.65840028  0.07563529    -0.27020
C3204       C  0.43114850  0.64861933  0.06941293    -0.15100
C3205       C  0.43591022  0.64110264  0.04467090     0.35530
C3206       C  0.41696124  0.64288746  0.02705849    -0.26470
C3207       C  0.39297006  0.65149041  0.03322715    -0.15710
C3208       C  0.38833253  0.65993493  0.05773004     0.36620
N3209       N  0.36394514  0.66863571  0.06471839    -0.89960
H3210       H  0.40397812  0.66397988  0.09469700     0.17730
H3211       H  0.42097005  0.63655630  0.00832826     0.17720
N3212       N  0.45930640  0.63056104  0.03678647    -0.88990
H3213       H  0.36338399  0.67289508  0.08370546     0.35100
H3214       H  0.36075350  0.68534251  0.05527329     0.40200
H3215       H  0.47227868  0.62986237  0.05117050     0.39820
H3216       H  0.46678315  0.64224700  0.02311808     0.34710
C3217       C  0.67080467  0.54451811  0.06054993    -0.27020
C3218       C  0.64887919  0.53890340  0.07371916    -0.15100
C3219       C  0.62692680  0.55243624  0.06898543     0.35530
C3220       C  0.62692639  0.57039883  0.05030227    -0.26470
C3221       C  0.64812081  0.57477847  0.03545917    -0.15710
C3222       C  0.67068468  0.56238610  0.04130512     0.36620
N3223       N  0.69309228  0.56741040  0.02745683    -0.89960
H3224       H  0.68768440  0.53415010  0.06450860     0.17730
H3225       H  0.60965829  0.58021430  0.04667582     0.17720
N3226       N  0.60450392  0.54771663  0.08297153    -0.88990
H3227       H  0.70771710  0.55615730  0.03370654     0.35100
H3228       H  0.69830729  0.58578273  0.03126889     0.40200
H3229       H  0.59705496  0.53085337  0.07675073     0.39820
H3230       H  0.59097289  0.56122183  0.07920117     0.34710
C3231       C  0.55343213  0.42619783  0.16345933    -0.27020
C3232       C  0.57505385  0.42235948  0.14918868    -0.15100
C3233       C  0.57797085  0.39977788  0.13583872     0.35530
C3234       C  0.55870005  0.38216605  0.13623509    -0.26470
C3235       C  0.53671484  0.38654339  0.14959248    -0.15710
C3236       C  0.53424064  0.40832093  0.16395546     0.36620
N3237       N  0.51201904  0.41240850  0.17840928    -0.89960
H3238       H  0.55129129  0.44344670  0.17372998     0.17730
H3239       H  0.56059638  0.36522988  0.12538980     0.17720
N3240       N  0.59988275  0.39416182  0.12144466    -0.88990
H3241       H  0.51306202  0.42943475  0.18779859     0.35100
H3242       H  0.51126823  0.39856543  0.19207434     0.40200
H3243       H  0.61294542  0.40851047  0.12223623     0.39820
H3244       H  0.59438109  0.39239482  0.10288572     0.34710
C3245       C  0.55239000  0.52817091  0.16476283    -0.27020
C3246       C  0.57551897  0.53381558  0.15400231    -0.15100
C3247       C  0.57984105  0.55806276  0.14465023     0.35530
C3248       C  0.55995400  0.57487382  0.14335290    -0.26470
C3249       C  0.53603081  0.56859414  0.15205738    -0.15710
C3250       C  0.53242657  0.54508069  0.16379763     0.36620
N3251       N  0.50881044  0.53682005  0.17356089    -0.89960
H3252       H  0.54911545  0.50965652  0.17212550     0.17730
H3253       H  0.56317204  0.59299352  0.13502756     0.17720
N3254       N  0.60392722  0.56596686  0.13568136    -0.88990
H3255       H  0.50348823  0.52099412  0.16354396     0.35100
H3256       H  0.49464471  0.54975138  0.17099363     0.40200
H3257       H  0.61766457  0.55271049  0.13938221     0.39820
H3258       H  0.60925321  0.58161203  0.14590413     0.34710
C3259       C  0.67233535  0.40095012  0.03902487    -0.27020
C3260       C  0.65076253  0.38703050  0.03401765    -0.15100
C3261       C  0.62833459  0.39293966  0.04613930     0.35530
C3262       C  0.62743389  0.41290938  0.06245663    -0.26470
C3263       C  0.64864133  0.42735618  0.06759130    -0.15710
C3264       C  0.67153475  0.42129954  0.05571100     0.36620
N3265       N  0.69346243  0.43620196  0.05966793    -0.89960
H3266       H  0.68942892  0.39664473  0.02911674     0.17730
H3267       H  0.60956522  0.41731585  0.07077014     0.17720
N3268       N  0.60611307  0.37880846  0.04158802    -0.88990
H3269       H  0.70820945  0.42981418  0.04860973     0.35100
H3270       H  0.69909674  0.43379366  0.07809476     0.40200
H3271       H  0.59239056  0.39089796  0.03487866     0.39820
H3272       H  0.59989999  0.37146726  0.05852586     0.34710
C3273       C  0.67890566  0.37035780  0.15109892    -0.27020
C3274       C  0.67992937  0.36261627  0.17577238    -0.15100
C3275       C  0.67925026  0.38056215  0.19511267     0.35530
C3276       C  0.67692098  0.40595557  0.18898259    -0.26470
C3277       C  0.67556786  0.41382491  0.16404342    -0.15710
C3278       C  0.67659090  0.39538561  0.14498954     0.36620
N3279       N  0.67422557  0.40107989  0.11913690    -0.89960
H3280       H  0.67945154  0.35664744  0.13625860     0.17730
H3281       H  0.67612982  0.41958875  0.20383764     0.17720
N3282       N  0.68151532  0.37389301  0.22092782    -0.88990
H3283       H  0.68918893  0.41229945  0.11379599     0.35100
H3284       H  0.65732531  0.41029662  0.11647980     0.40200
H3285       H  0.68389319  0.35475165  0.22323960     0.39820
H3286       H  0.66476846  0.37861841  0.22974733     0.34710
C3287       C  0.66627693  0.26323257  0.08023065    -0.27020
C3288       C  0.68287478  0.27926797  0.09256967    -0.15100
C3289       C  0.69699293  0.29624446  0.07793142     0.35530
C3290       C  0.69276638  0.29800842  0.05215663    -0.26470
C3291       C  0.67457431  0.28340048  0.04020647    -0.15710
C3292       C  0.66187191  0.26509605  0.05461080     0.36620
N3293       N  0.64422813  0.24806585  0.04401852    -0.89960
H3294       H  0.65578015  0.24953754  0.09073228     0.17730
H3295       H  0.70296578  0.31192815  0.04166539     0.17720
N3296       N  0.71581204  0.31193901  0.08850265    -0.88990
H3297       H  0.65237867  0.23935629  0.02861292     0.35100
H3298       H  0.62821041  0.25768815  0.03859894     0.40200
H3299       H  0.72867062  0.30078166  0.09795711     0.39820
H3300       H  0.70743220  0.32429482  0.10099475     0.34710
C3301       C  0.58289108  0.26107792  0.16295754    -0.27020
C3302       C  0.59637367  0.27968740  0.17542220    -0.15100
C3303       C  0.58356220  0.30062397  0.18497419     0.35530
C3304       C  0.55773359  0.30286580  0.18099770    -0.26470
C3305       C  0.54443956  0.28480034  0.16756209    -0.15710
C3306       C  0.55707722  0.26338053  0.15888493     0.36620
N3307       N  0.54370119  0.24390735  0.14625658    -0.89960
H3308       H  0.59262518  0.24476215  0.15610459     0.17730
H3309       H  0.54816114  0.31947148  0.18735039     0.17720
N3310       N  0.59697248  0.32026203  0.19731183    -0.88990
H3311       H  0.55519893  0.22839363  0.14362814     0.35100
H3312       H  0.53935055  0.25031153  0.12842904     0.40200
H3313       H  0.60263196  0.31350411  0.21464164     0.39820
H3314       H  0.58516399  0.33531548  0.20103008     0.34710
C3315       C  0.77546227  0.37207409  0.30208316    -0.27020
C3316       C  0.78380828  0.36273827  0.27931331    -0.15100
C3317       C  0.79275565  0.37934777  0.26098865     0.35530
C3318       C  0.79374198  0.40509523  0.26628710    -0.26470
C3319       C  0.78615821  0.41444717  0.28959768    -0.15710
C3320       C  0.77673081  0.39744799  0.30753943     0.36620
N3321       N  0.76910322  0.40553109  0.33179960    -0.89960
H3322       H  0.76839118  0.35940273  0.31614773     0.17730
H3323       H  0.80109495  0.41776042  0.25240775     0.17720
N3324       N  0.80010575  0.37016980  0.23693718    -0.88990
H3325       H  0.78000731  0.39616831  0.34493322     0.35100
H3326       H  0.75050019  0.40029642  0.33449520     0.40200
H3327       H  0.81624581  0.35952310  0.23932246     0.39820
H3328       H  0.80502948  0.38493228  0.22523192     0.34710
C3329       C  0.77287146  0.27283678  0.40584248    -0.27020
C3330       C  0.79017194  0.29094953  0.41341389    -0.15100
C3331       C  0.80266294  0.30535137  0.39497746     0.35530
C3332       C  0.79748915  0.30139210  0.36982700    -0.26470
C3333       C  0.78101924  0.28279447  0.36221790    -0.15710
C3334       C  0.76840249  0.26836291  0.38028661     0.36620
N3335       N  0.75083299  0.24964109  0.37264821    -0.89960
H3336       H  0.76348004  0.26168546  0.41981118     0.17730
H3337       H  0.80722744  0.31242001  0.35596136     0.17720
N3338       N  0.82131605  0.32367853  0.40079815    -0.88990
H3339       H  0.74263181  0.24122334  0.38818942     0.35100
H3340       H  0.76075814  0.23567824  0.36337167     0.40200
H3341       H  0.82499204  0.32455672  0.41974893     0.39820
H3342       H  0.81438980  0.34108247  0.39549427     0.34710
C3343       C  0.87998175  0.29523531  0.26673497    -0.27020
C3344       C  0.86707593  0.27781550  0.28148098    -0.15100
C3345       C  0.88082598  0.26237319  0.29775832     0.35530
C3346       C  0.90677366  0.26558911  0.29975027    -0.26470
C3347       C  0.91948022  0.28410976  0.28621879    -0.15710
C3348       C  0.90594816  0.29859807  0.26889789     0.36620
N3349       N  0.91824475  0.31753501  0.25448262    -0.89960
H3350       H  0.86963410  0.30684351  0.25389061     0.17730
H3351       H  0.91699327  0.25421818  0.31290615     0.17720
N3352       N  0.86858119  0.24337740  0.31215908    -0.88990
H3353       H  0.90537611  0.32736722  0.24367443     0.35100
H3354       H  0.93020910  0.30853942  0.24199317     0.40200
H3355       H  0.85845565  0.25229519  0.32621834     0.39820
H3356       H  0.88168848  0.23221392  0.32126024     0.34710
C3357       C  0.66383369  0.07973107  0.26621155    -0.27020
C3358       C  0.68129148  0.09301661  0.28049653    -0.15100
C3359       C  0.69748799  0.07968188  0.29641532     0.35530
C3360       C  0.69443995  0.05383977  0.29920304    -0.26470
C3361       C  0.67586596  0.04076364  0.28617545    -0.15710
C3362       C  0.66093601  0.05385293  0.26893987     0.36620
N3363       N  0.64189262  0.04129074  0.25510690    -0.89960
H3364       H  0.65163504  0.08959586  0.25352599     0.17730
H3365       H  0.70621924  0.04394199  0.31225078     0.17720
N3366       N  0.71693714  0.09237004  0.30978467    -0.88990
H3367       H  0.64541571  0.04406576  0.23616319     0.35100
H3368       H  0.62476004  0.04960943  0.25935289     0.40200
H3369       H  0.72957224  0.09930265  0.29664570     0.39820
H3370       H  0.72690585  0.07992484  0.32094807     0.34710
C3371       C  0.67957768  0.19616817  0.38011110    -0.27020
C3372       C  0.67703863  0.17616584  0.36341749    -0.15100
C3373       C  0.67368079  0.15188696  0.37284406     0.35530
C3374       C  0.67351293  0.14819151  0.39854188    -0.26470
C3375       C  0.67611663  0.16799007  0.41558744    -0.15710
C3376       C  0.67947530  0.19245017  0.40610855     0.36620
N3377       N  0.68363428  0.21370116  0.42187202    -0.89960
H3378       H  0.68254531  0.21477248  0.37286152     0.17730
H3379       H  0.67036786  0.12939815  0.40520393     0.17720
N3380       N  0.67007048  0.13051597  0.35705940    -0.88990
H3381       H  0.70073603  0.22155835  0.41670736     0.35100
H3382       H  0.68588215  0.20848043  0.44039791     0.40200
H3383       H  0.66894719  0.13551244  0.33836721     0.39820
H3384       H  0.65270193  0.12279125  0.36148094     0.34710
C3385       C  0.58125543  0.16712844  0.26074847    -0.27020
C3386       C  0.59547322  0.17812068  0.27970525    -0.15100
C3387       C  0.58327258  0.18764898  0.30102204     0.35530
C3388       C  0.55717007  0.18548277  0.30312730    -0.26470
C3389       C  0.54309205  0.17340838  0.28470543    -0.15710
C3390       C  0.55519651  0.16477494  0.26297083     0.36620
N3391       N  0.54097552  0.15319807  0.24347053    -0.89960
H3392       H  0.59054460  0.16028007  0.24417087     0.17730
H3393       H  0.54804190  0.19163845  0.32005415     0.17720
N3394       N  0.59753531  0.19835828  0.32099519    -0.88990
H3395       H  0.55263239  0.14777678  0.22881098     0.35100
H3396       H  0.52883313  0.16663818  0.23631673     0.40200
H3397       H  0.60868123  0.18424722  0.32847343     0.39820
H3398       H  0.58577511  0.20433501  0.33535467     0.34710
C3399       C  0.76673749  0.07644483  0.18589229    -0.27020
C3400       C  0.78309769  0.09353819  0.17457864    -0.15100
C3401       C  0.80315918  0.08469633  0.15997543     0.35530
C3402       C  0.80649323  0.05905048  0.15734881    -0.26470
C3403       C  0.79029875  0.04184792  0.16865566    -0.15710
C3404       C  0.77002021  0.05060182  0.18306342     0.36620
N3405       N  0.75283277  0.03410035  0.19534227    -0.89960
H3406       H  0.75129947  0.08325639  0.19704451     0.17730
H3407       H  0.82219099  0.05241570  0.14641234     0.17720
N3408       N  0.82100357  0.10097340  0.14825269    -0.88990
H3409       H  0.75459041  0.03697907  0.21450965     0.35100
H3410       H  0.75731808  0.01547400  0.19210079     0.40200
H3411       H  0.81753966  0.11969925  0.15208363     0.39820
H3412       H  0.81928401  0.09872700  0.12899780     0.34710
C3413       C  0.76543737  0.16669494  0.08008670    -0.27020
C3414       C  0.78424571  0.17890753  0.09368065    -0.15100
C3415       C  0.80470602  0.18919966  0.08055812     0.35530
C3416       C  0.80651882  0.18600592  0.05463802    -0.26470
C3417       C  0.78850035  0.17236004  0.04148170    -0.15710
C3418       C  0.76747016  0.16324319  0.05430367     0.36620
N3419       N  0.74827637  0.15008436  0.04122662    -0.89960
H3420       H  0.74928212  0.15907040  0.08954761     0.17730
H3421       H  0.82291350  0.19294384  0.04504220     0.17720
N3422       N  0.82394017  0.20252639  0.09338967    -0.88990
H3423       H  0.73142553  0.15948590  0.04407415     0.35100
H3424       H  0.74662947  0.13234382  0.04907271     0.40200
H3425       H  0.82504487  0.22041643  0.08579569     0.39820
H3426       H  0.84091374  0.19351235  0.09003078     0.34710
C3427       C  0.90889848  0.17784815  0.19137418    -0.27020
C3428       C  0.91640138  0.16918150  0.16784724    -0.15100
C3429       C  0.89772900  0.16216068  0.15046232     0.35530
C3430       C  0.87259318  0.16444864  0.15648496    -0.26470
C3431       C  0.86509076  0.17379322  0.17946541    -0.15710
C3432       C  0.88337628  0.18053705  0.19733774     0.36620
N3433       N  0.87684821  0.19046020  0.22134209    -0.89960
H3434       H  0.92288242  0.18298268  0.20498818     0.17730
H3435       H  0.85867863  0.15914087  0.14282093     0.17720
N3436       N  0.90357999  0.15204176  0.12656090    -0.88990
H3437       H  0.88319024  0.17790766  0.23478701     0.35100
H3438       H  0.85754277  0.19172532  0.22359317     0.40200
H3439       H  0.91519713  0.13661593  0.12899896     0.39820
H3440       H  0.91262091  0.16574083  0.11614640     0.34710
C3441       C  0.69999012  0.67281927  0.07887704    -0.27020
C3442       C  0.67927650  0.68002092  0.09343969    -0.15100
C3443       C  0.65657872  0.68555570  0.08091973     0.35530
C3444       C  0.65511855  0.68318404  0.05500283    -0.26470
C3445       C  0.67532745  0.67455887  0.04080010    -0.15710
C3446       C  0.69835280  0.67006763  0.05287081     0.36620
N3447       N  0.72039609  0.66268719  0.03944454    -0.89960
H3448       H  0.71772968  0.66901769  0.08774009     0.17730
H3449       H  0.63735045  0.68665097  0.04610614     0.17720
N3450       N  0.63426469  0.69266240  0.09382286    -0.88990
H3451       H  0.73401233  0.67628140  0.04257316     0.35100
H3452       H  0.71733251  0.66270031  0.02026674     0.40200
H3453       H  0.62951306  0.67867734  0.10651234     0.39820
H3454       H  0.63739958  0.70942525  0.10318614     0.34710
C3455       C  0.58084512  0.69442614  0.17820816    -0.27020
C3456       C  0.59739208  0.67406038  0.17715751    -0.15100
C3457       C  0.58749949  0.64987307  0.17459646     0.35530
C3458       C  0.56166587  0.64654018  0.17350414    -0.26470
C3459       C  0.54490616  0.66667624  0.17458553    -0.15710
C3460       C  0.55472170  0.69108964  0.17739165     0.36620
N3461       N  0.53913059  0.71271545  0.18020585    -0.89960
H3462       H  0.58820721  0.71307267  0.18057294     0.17730
H3463       H  0.55462777  0.62781229  0.17082117     0.17720
N3464       N  0.60370435  0.62863254  0.17264785    -0.88990
H3465       H  0.54387959  0.72119526  0.19707545     0.35100
H3466       H  0.52042067  0.70782520  0.18216006     0.40200
H3467       H  0.61324194  0.62997549  0.15570131     0.39820
H3468       H  0.59337204  0.61214489  0.17211316     0.34710
C3469       C  0.66003541  0.55462404  0.18849616    -0.27020
C3470       C  0.67552937  0.54055007  0.17267328    -0.15100
C3471       C  0.69516449  0.55287743  0.15996861     0.35530
C3472       C  0.69761261  0.57899636  0.16210369    -0.26470
C3473       C  0.68127585  0.59300757  0.17707524    -0.15710
C3474       C  0.66260961  0.58046262  0.19068957     0.36620
N3475       N  0.64540759  0.59398370  0.20603117    -0.89960
H3476       H  0.64488475  0.54573336  0.19850013     0.17730
H3477       H  0.71239059  0.58845511  0.15207670     0.17720
N3478       N  0.71205324  0.53911098  0.14437016    -0.88990
H3479       H  0.62734578  0.59027734  0.19970174     0.35100
H3480       H  0.64684961  0.58716596  0.22419697     0.40200
H3481       H  0.72240907  0.52736406  0.15593186     0.39820
H3482       H  0.72487091  0.55106199  0.13582768     0.34710
C3483       C  0.67001149  0.75888749  0.37826387    -0.27020
C3484       C  0.67995508  0.77860598  0.36423365    -0.15100
C3485       C  0.68774267  0.80042775  0.37682883     0.35530
C3486       C  0.68475177  0.80234438  0.40266481    -0.26470
C3487       C  0.67370318  0.78315448  0.41660150    -0.15710
C3488       C  0.66679481  0.76086830  0.40427303     0.36620
N3489       N  0.65695255  0.74016375  0.41813792    -0.89960
H3490       H  0.66453542  0.74190237  0.36884229     0.17730
H3491       H  0.68974537  0.81970133  0.41166841     0.17720
N3492       N  0.69724701  0.82163582  0.36374582    -0.88990
H3493       H  0.65558393  0.72442222  0.40675953     0.35100
H3494       H  0.63868098  0.74451916  0.42332344     0.40200
H3495       H  0.68414499  0.82688087  0.35034096     0.39820
H3496       H  0.71391591  0.81673664  0.35491650     0.34710
C3497       C  0.58943883  0.79423832  0.30152962    -0.27020
C3498       C  0.59757041  0.78146611  0.28047167    -0.15100
C3499       C  0.58002138  0.77151157  0.26358093     0.35530
C3500       C  0.55427016  0.77497841  0.26808793    -0.26470
C3501       C  0.54614349  0.78745776  0.28956158    -0.15710
C3502       C  0.56397185  0.79706208  0.30646769     0.36620
N3503       N  0.55613028  0.80955247  0.32881001    -0.89960
H3504       H  0.60308684  0.80167700  0.31442771     0.17730
H3505       H  0.54061134  0.76742007  0.25530183     0.17720
N3506       N  0.58843466  0.75770222  0.24223720    -0.88990
H3507       H  0.57151775  0.81549284  0.33918392     0.35100
H3508       H  0.54643716  0.82556321  0.32370906     0.40200
H3509       H  0.59837128  0.76994410  0.23079070     0.39820
H3510       H  0.57321139  0.75137529  0.23185085     0.34710
C3511       C  0.66346946  0.87534164  0.26514173    -0.27020
C3512       C  0.68106518  0.86386018  0.28072305    -0.15100
C3513       C  0.69550485  0.87890755  0.29684796     0.35530
C3514       C  0.69102171  0.90475079  0.29788315    -0.26470
C3515       C  0.67233127  0.91592286  0.28334827    -0.15710
C3516       C  0.65901825  0.90106438  0.26614177     0.36620
N3517       N  0.64063403  0.91202002  0.25003252    -0.89960
H3518       H  0.65267589  0.86408349  0.25233746     0.17730
H3519       H  0.70133118  0.91598204  0.31109674     0.17720
N3520       N  0.71479726  0.86811760  0.31193640    -0.88990
H3521       H  0.63224358  0.89848238  0.23882953     0.35100
H3522       H  0.64996010  0.92421813  0.23803826     0.40200
H3523       H  0.70605777  0.85787533  0.32596853     0.39820
H3524       H  0.72497324  0.88202362  0.32101466     0.34710
C3525       C  0.77656971  0.69442421  0.38076400    -0.27020
C3526       C  0.78172882  0.67461505  0.36427237    -0.15100
C3527       C  0.78959353  0.65167686  0.37421473     0.35530
C3528       C  0.79174026  0.64864290  0.39965717    -0.26470
C3529       C  0.78655749  0.66805877  0.41625232    -0.15710
C3530       C  0.77897436  0.69137245  0.40683859     0.36620
N3531       N  0.77295025  0.71137136  0.42355762    -0.89960
H3532       H  0.77047061  0.71215080  0.37332175     0.17730
H3533       H  0.79836792  0.63081695  0.40647557     0.17720
N3534       N  0.79664505  0.63121643  0.35891003    -0.88990
H3535       H  0.76657891  0.72683009  0.41359474     0.35100
H3536       H  0.78945989  0.71690088  0.43228206     0.40200
H3537       H  0.81026714  0.63747752  0.34643550     0.39820
H3538       H  0.78081849  0.62512335  0.34937873     0.34710
C3539       C  0.88240968  0.69235216  0.29155366    -0.27020
C3540       C  0.86650346  0.67382378  0.28218907    -0.15100
C3541       C  0.87671174  0.65129446  0.27347614     0.35530
C3542       C  0.90254807  0.64761510  0.27448908    -0.26470
C3543       C  0.91870910  0.66576474  0.28442299    -0.15710
C3544       C  0.90848043  0.68870613  0.29252229     0.36620
N3545       N  0.92438504  0.70804560  0.30199653    -0.89960
H3546       H  0.87448748  0.70986356  0.29773232     0.17730
H3547       H  0.90991889  0.62987834  0.26830011     0.17720
N3548       N  0.86067981  0.63188321  0.26426677    -0.88990
H3549       H  0.91382690  0.72342340  0.30763537     0.35100
H3550       H  0.93562498  0.71412554  0.28727284     0.40200
H3551       H  0.84966975  0.62580823  0.27914644     0.39820
H3552       H  0.87111523  0.61648632  0.25845415     0.34710
C3553       C  0.77378731  0.57648678  0.26046113    -0.27020
C3554       C  0.78283477  0.59302230  0.27867433    -0.15100
C3555       C  0.79387532  0.58333624  0.30023900     0.35530
C3556       C  0.79444411  0.55760342  0.30407774    -0.26470
C3557       C  0.78617615  0.54093119  0.28588370    -0.15710
C3558       C  0.77594118  0.55042796  0.26351413     0.36620
N3559       N  0.76811655  0.53443479  0.24354618    -0.89960
H3560       H  0.76558028  0.58384959  0.24357705     0.17730
H3561       H  0.80279148  0.55043864  0.32093312     0.17720
N3562       N  0.80506968  0.59971483  0.31799429    -0.88990
H3563       H  0.74896215  0.53711787  0.24103807     0.35100
H3564       H  0.77048872  0.51570900  0.24819596     0.40200
H3565       H  0.81990086  0.60884088  0.30925648     0.39820
H3566       H  0.81262000  0.58967999  0.33286664     0.34710
C3567       C  0.76606999  0.79621617  0.08212292    -0.27020
C3568       C  0.78329280  0.78104634  0.09464121    -0.15100
C3569       C  0.80153528  0.76805746  0.08069520     0.35530
C3570       C  0.80250882  0.77108507  0.05469418    -0.26470
C3571       C  0.78601017  0.78718259  0.04233303    -0.15710
C3572       C  0.76709778  0.79928550  0.05616154     0.36620
N3573       N  0.74922384  0.81495561  0.04382901    -0.89960
H3574       H  0.75167412  0.80572244  0.09265485     0.17730
H3575       H  0.81729331  0.76207269  0.04426881     0.17720
N3576       N  0.81966391  0.75266650  0.09302190    -0.88990
H3577       H  0.73672490  0.82266768  0.05665759     0.35100
H3578       H  0.73872486  0.80364492  0.03195533     0.40200
H3579       H  0.83070032  0.76428702  0.10409357     0.39820
H3580       H  0.83167039  0.74438065  0.08008401     0.34710
C3581       C  0.90975197  0.79438895  0.18916607    -0.27020
C3582       C  0.92089651  0.78199171  0.16893105    -0.15100
C3583       C  0.90572034  0.76597234  0.15424069     0.35530
C3584       C  0.88020131  0.76410084  0.15906924    -0.26470
C3585       C  0.86873260  0.77772547  0.17819145    -0.15710
C3586       C  0.88393340  0.79233522  0.19409629     0.36620
N3587       N  0.87314434  0.80580776  0.21458219    -0.89960
H3588       H  0.92099734  0.80663292  0.20059814     0.17730
H3589       H  0.86911338  0.75210315  0.14720555     0.17720
N3590       N  0.91533837  0.75144264  0.13399038    -0.88990
H3591       H  0.88657080  0.81694601  0.22325486     0.35100
H3592       H  0.86759015  0.79271151  0.22787759     0.40200
H3593       H  0.93070266  0.74119421  0.14019040     0.39820
H3594       H  0.92051343  0.76318072  0.11936831     0.34710
C3595       C  0.78516390  0.87060326  0.15421567    -0.27020
C3596       C  0.78521489  0.86258419  0.17885200    -0.15100
C3597       C  0.78721462  0.88022398  0.19823223     0.35530
C3598       C  0.78944675  0.90582943  0.19232386    -0.26470
C3599       C  0.78965855  0.91396059  0.16740110    -0.15710
C3600       C  0.78802826  0.89578724  0.14819038     0.36620
N3601       N  0.79086245  0.90263228  0.12250422    -0.89960
H3602       H  0.78385419  0.85688522  0.13945071     0.17730
H3603       H  0.79106025  0.91940412  0.20715206     0.17720
N3604       N  0.78669686  0.87210394  0.22370719    -0.88990
H3605       H  0.78787803  0.88735502  0.11080352     0.35100
H3606       H  0.80956626  0.90759813  0.12015579     0.40200
H3607       H  0.76915799  0.86423288  0.22705863     0.39820
H3608       H  0.78831836  0.88734551  0.23571246     0.34710
C3609       C  0.29537587  0.65367936  0.08565498    -0.27020
C3610       C  0.28498830  0.67604935  0.09375310    -0.15100
C3611       C  0.27878176  0.69464716  0.07617027     0.35530
C3612       C  0.28280803  0.69004289  0.05056853    -0.26470
C3613       C  0.29254701  0.66713645  0.04257635    -0.15710
C3614       C  0.29954016  0.64910753  0.06044569     0.36620
N3615       N  0.31144680  0.62631649  0.05294824    -0.89960
H3616       H  0.30081668  0.63983923  0.09918466     0.17730
H3617       H  0.27774132  0.70395345  0.03688289     0.17720
N3618       N  0.26789268  0.71772449  0.08429185    -0.88990
H3619       H  0.31494939  0.61487575  0.06829773     0.35100
H3620       H  0.32885279  0.63098310  0.04550318     0.40200
H3621       H  0.25055673  0.71363045  0.09227129     0.39820
H3622       H  0.26439196  0.72931622  0.06906002     0.34710
C3623       C  0.26744285  0.57579608  0.18801339    -0.27020
C3624       C  0.28167732  0.59262311  0.17379504    -0.15100
C3625       C  0.29789840  0.58347314  0.15537005     0.35530
C3626       C  0.30024333  0.55768822  0.15198876    -0.26470
C3627       C  0.28688378  0.54072170  0.16676018    -0.15710
C3628       C  0.27009565  0.54984693  0.18496838     0.36620
N3629       N  0.25589563  0.53357539  0.20081691    -0.89960
H3630       H  0.25474286  0.58285770  0.20206717     0.17730
H3631       H  0.31317183  0.55069563  0.13809545     0.17720
N3632       N  0.31192468  0.60046714  0.14016663    -0.88990
H3633       H  0.26185545  0.53651828  0.21910645     0.35100
H3634       H  0.25937011  0.51489645  0.19669741     0.40200
H3635       H  0.29903278  0.61050992  0.12964704     0.39820
H3636       H  0.32311676  0.59076523  0.12748651     0.34710
C3637       C  0.38085421  0.69563831  0.16868906    -0.27020
C3638       C  0.36650601  0.67540179  0.17697184    -0.15100
C3639       C  0.37855953  0.65304473  0.18380768     0.35530
C3640       C  0.40444692  0.65115351  0.18154660    -0.26470
C3641       C  0.41873288  0.67091530  0.17208605    -0.15710
C3642       C  0.40690305  0.69364222  0.16610452     0.36620
N3643       N  0.42132412  0.71467573  0.15785885    -0.89960
H3644       H  0.37165817  0.71299195  0.16403240     0.17730
H3645       H  0.41326434  0.63352605  0.18585000     0.17720
N3646       N  0.36490680  0.63148817  0.19168761    -0.88990
H3647       H  0.41002862  0.73049283  0.15652103     0.35100
H3648       H  0.42752759  0.71098069  0.13979212     0.40200
H3649       H  0.35169653  0.62716777  0.17804876     0.39820
H3650       H  0.35565689  0.63556479  0.20832095     0.34710
C3651       C  0.18756099  0.65431954  0.37170105    -0.27020
C3652       C  0.17888601  0.67684183  0.36202924    -0.15100
C3653       C  0.16941414  0.69512003  0.37838873     0.35530
C3654       C  0.16786843  0.68993590  0.40413252    -0.26470
C3655       C  0.17579544  0.66689275  0.41382830    -0.15710
C3656       C  0.18598674  0.64904535  0.39713171     0.36620
N3657       N  0.19411666  0.62507456  0.40558823    -0.89960
H3658       H  0.19511087  0.64029842  0.35925550     0.17730
H3659       H  0.15994437  0.70374261  0.41653900     0.17720
N3660       N  0.16166221  0.71888350  0.36885951    -0.88990
H3661       H  0.21286729  0.62284918  0.40065827     0.35100
H3662       H  0.18373181  0.61146465  0.39628355     0.40200
H3663       H  0.17745025  0.72768251  0.36150959     0.39820
H3664       H  0.15516190  0.73023832  0.38329341     0.34710
C3665       C  0.16548382  0.58610416  0.29898878    -0.27020
C3666       C  0.18264877  0.59375279  0.28103824    -0.15100
C3667       C  0.19582606  0.57553633  0.26705320     0.35530
C3668       C  0.19101034  0.55006754  0.27134743    -0.26470
C3669       C  0.17309727  0.54249588  0.28888055    -0.15710
C3670       C  0.16027531  0.56096709  0.30290856     0.36620
N3671       N  0.14153884  0.55522519  0.32114499    -0.89960
H3672       H  0.15536300  0.59994817  0.30971282     0.17730
H3673       H  0.20093181  0.53616207  0.26056651     0.17720
N3674       N  0.21449845  0.58203655  0.24892578    -0.88990
H3675       H  0.14830128  0.56090565  0.33846881     0.35100
H3676       H  0.13784939  0.53627359  0.32221374     0.40200
H3677       H  0.21721893  0.60124573  0.24792375     0.39820
H3678       H  0.20804534  0.57627774  0.23149478     0.34710
C3679       C  0.05697254  0.65051952  0.27053211    -0.27020
C3680       C  0.04329572  0.66960207  0.28201878    -0.15100
C3681       C  0.05558897  0.69201647  0.28839758     0.35530
C3682       C  0.08154447  0.69364557  0.28560087    -0.26470
C3683       C  0.09573079  0.67375409  0.27596808    -0.15710
C3684       C  0.08287987  0.65217124  0.26760372     0.36620
N3685       N  0.09541827  0.63127766  0.25669537    -0.89960
H3686       H  0.04773855  0.63331073  0.26539067     0.17730
H3687       H  0.09064544  0.71072935  0.29131507     0.17720
N3688       N  0.04244824  0.71337867  0.29790879    -0.88990
H3689       H  0.10499779  0.63721262  0.24080533     0.35100
H3690       H  0.10797690  0.62392166  0.26961274     0.40200
H3691       H  0.02316758  0.71083411  0.29695727     0.39820
H3692       H  0.04620288  0.72829292  0.28596249     0.34710
C3693       C  0.29899686  0.76262227  0.37795169    -0.27020
C3694       C  0.28529338  0.77946294  0.36336474    -0.15100
C3695       C  0.27286539  0.79945364  0.37508501     0.35530
C3696       C  0.27427448  0.80209215  0.40097930    -0.26470
C3697       C  0.28848304  0.78574520  0.41572883    -0.15710
C3698       C  0.30062383  0.76542382  0.40403641     0.36620
N3699       N  0.31511312  0.74813622  0.41842085    -0.89960
H3700       H  0.30827852  0.74709290  0.36898426     0.17730
H3701       H  0.26499334  0.81784382  0.40954174     0.17720
N3702       N  0.25952089  0.81758390  0.36055649    -0.88990
H3703       H  0.32353997  0.73491020  0.40685463     0.35100
H3704       H  0.30274312  0.73836989  0.42989670     0.40200
H3705       H  0.27258424  0.82696570  0.34952597     0.39820
H3706       H  0.25127286  0.83101540  0.37201293     0.34710
C3707       C  0.30164961  0.87384895  0.26581177    -0.27020
C3708       C  0.28351285  0.86211789  0.28054796    -0.15100
C3709       C  0.26881731  0.87684125  0.29676939     0.35530
C3710       C  0.27376861  0.90256916  0.29900459    -0.26470
C3711       C  0.29307446  0.91403664  0.28539216    -0.15710
C3712       C  0.30677082  0.89926044  0.26812994     0.36620
N3713       N  0.32622311  0.90922192  0.25272492    -0.89960
H3714       H  0.31275490  0.86297011  0.25289787     0.17730
H3715       H  0.26306658  0.91349950  0.31218965     0.17720
N3716       N  0.24895668  0.86570042  0.31092814    -0.88990
H3717       H  0.34140061  0.91428776  0.26380080     0.35100
H3718       H  0.31938598  0.92474389  0.24318454     0.40200
H3719       H  0.23552768  0.85940868  0.29830155     0.39820
H3720       H  0.24016839  0.87899221  0.32214424     0.34710
C3721       C  0.38421669  0.76792755  0.26307659    -0.27020
C3722       C  0.36705790  0.77885689  0.27966955    -0.15100
C3723       C  0.37581522  0.79244040  0.30021756     0.35530
C3724       C  0.40159993  0.79542309  0.30349172    -0.26470
C3725       C  0.41881562  0.78542807  0.28655877    -0.15710
C3726       C  0.41019397  0.77126502  0.26626593     0.36620
N3727       N  0.42767592  0.76105529  0.24872856    -0.89960
H3728       H  0.37730839  0.75726753  0.24740502     0.17730
H3729       H  0.40842934  0.80602849  0.31918659     0.17720
N3730       N  0.35842625  0.80341118  0.31745401    -0.88990
H3731       H  0.41826176  0.75134003  0.23472599     0.35100
H3732       H  0.43858595  0.74800560  0.25819488     0.40200
H3733       H  0.34879732  0.78892079  0.32622001     0.39820
H3734       H  0.36786681  0.81304751  0.33147910     0.34710
C3735       C  0.16373839  0.76369893  0.05230261    -0.27020
C3736       C  0.17516711  0.78391750  0.04011904    -0.15100
C3737       C  0.19050054  0.80008224  0.05422406     0.35530
C3738       C  0.19274031  0.79650321  0.08013796    -0.26470
C3739       C  0.18014670  0.77711121  0.09248551    -0.15710
C3740       C  0.16611108  0.76006743  0.07804509     0.36620
N3741       N  0.15428845  0.73869835  0.08881412    -0.89960
H3742       H  0.15211705  0.75094518  0.04182048     0.17730
H3743       H  0.20391704  0.80941662  0.09089421     0.17720
N3744       N  0.20271077  0.82086004  0.04256479    -0.88990
H3745       H  0.14057997  0.74463454  0.10131881     0.35100
H3746       H  0.16773957  0.72835588  0.09837590     0.40200
H3747       H  0.21635073  0.81370549  0.03061204     0.39820
H3748       H  0.21216702  0.83159818  0.05576918     0.34710
C3749       C  0.16219156  0.87045282  0.15752049    -0.27020
C3750       C  0.18127973  0.86314822  0.17352020    -0.15100
C3751       C  0.19535297  0.88138810  0.18622047     0.35530
C3752       C  0.19006408  0.90685725  0.18229314    -0.26470
C3753       C  0.17040775  0.91417929  0.16668145    -0.15710
C3754       C  0.15631282  0.89555505  0.15409337     0.36620
N3755       N  0.13576835  0.90111689  0.13781523    -0.89960
H3756       H  0.15128334  0.85639937  0.14793729     0.17730
H3757       H  0.20074421  0.92096904  0.19199524     0.17720
N3758       N  0.21510988  0.87399154  0.20270140    -0.88990
H3759       H  0.14031098  0.89433510  0.12013926     0.35100
H3760       H  0.13295255  0.92013946  0.13576397     0.40200
H3761       H  0.20702200  0.86459643  0.21772466     0.39820
H3762       H  0.22400412  0.88965136  0.21011691     0.34710
C3763       C  0.09093117  0.79992696  0.15902135    -0.27020
C3764       C  0.09871666  0.78261742  0.17673766    -0.15100
C3765       C  0.08081038  0.76850518  0.18999412     0.35530
C3766       C  0.05517053  0.77260452  0.18557740    -0.26470
C3767       C  0.04745395  0.79023972  0.16797963    -0.15710
C3768       C  0.06553031  0.80370488  0.15428297     0.36620
N3769       N  0.05802956  0.82070281  0.13504000    -0.89960
H3770       H  0.10479789  0.81032376  0.14860276     0.17730
H3771       H  0.04125530  0.76245079  0.19613940     0.17720
N3772       N  0.08870645  0.75088451  0.20851351    -0.88990
H3773       H  0.07358303  0.82861430  0.12631527     0.35100
H3774       H  0.04837845  0.83529983  0.14336748     0.40200
H3775       H  0.09814140  0.73649839  0.19937859     0.39820
H3776       H  0.07323608  0.74274504  0.21717629     0.34710
C3777       C  0.37311683  0.65335055  0.79228796    -0.27020
C3778       C  0.36522878  0.67533273  0.78086788    -0.15100
C3779       C  0.38313982  0.69346028  0.77394803     0.35530
C3780       C  0.40876832  0.68881052  0.77816790    -0.26470
C3781       C  0.41659701  0.66639565  0.78904730    -0.15710
C3782       C  0.39844117  0.64893318  0.79696078     0.36620
N3783       N  0.40578836  0.62688607  0.81022837    -0.89960
H3784       H  0.35933174  0.63976917  0.79813691     0.17730
H3785       H  0.42262725  0.70231901  0.77238039     0.17720
N3786       N  0.37529688  0.71615597  0.76214283    -0.88990
H3787       H  0.39021868  0.61607712  0.81483760     0.35100
H3788       H  0.41373541  0.63246926  0.82706509     0.40200
H3789       H  0.36731901  0.71143843  0.74502705     0.39820
H3790       H  0.39069923  0.72745161  0.75819812     0.34710
C3791       C  0.30508790  0.66367064  0.87111703    -0.27020
C3792       C  0.28395740  0.67665061  0.86344407    -0.15100
C3793       C  0.26656968  0.68507672  0.88142593     0.35530
C3794       C  0.27139716  0.68105138  0.90699757    -0.26470
C3795       C  0.29302024  0.66845223  0.91464938    -0.15710
C3796       C  0.30934046  0.65857468  0.89619489     0.36620
N3797       N  0.33008147  0.64267333  0.90197702    -0.89960
H3798       H  0.31806157  0.65652684  0.85733125     0.17730
H3799       H  0.25866025  0.68825320  0.92093039     0.17720
N3800       N  0.24452061  0.69818807  0.87370352    -0.88990
H3801       H  0.32729651  0.62573040  0.89278555     0.35100
H3802       H  0.33042406  0.63826111  0.92075479     0.40200
H3803       H  0.25021083  0.71481164  0.86530222     0.39820
H3804       H  0.23370902  0.70313668  0.88915375     0.34710
C3805       C  0.29467402  0.58159989  0.76209247    -0.27020
C3806       C  0.27967640  0.59376704  0.77987349    -0.15100
C3807       C  0.26703142  0.57904123  0.79782189     0.35530
C3808       C  0.27154022  0.55336138  0.79897674    -0.26470
C3809       C  0.28838488  0.54171185  0.78262204    -0.15710
C3810       C  0.29902722  0.55597120  0.76313333     0.36620
N3811       N  0.31381087  0.54501508  0.74373321    -0.89960
H3812       H  0.30369541  0.59213948  0.74741910     0.17730
H3813       H  0.26279427  0.54271494  0.81374435     0.17720
N3814       N  0.24951618  0.58940722  0.81511836    -0.88990
H3815       H  0.30380139  0.53023786  0.73594424     0.35100
H3816       H  0.33052883  0.53831018  0.75099340     0.40200
H3817       H  0.23568058  0.59882464  0.80515873     0.39820
H3818       H  0.25880477  0.60188271  0.82679770     0.34710
C3819       C  0.38012928  0.76607067  0.66222090    -0.27020
C3820       C  0.36697331  0.77946272  0.68052579    -0.15100
C3821       C  0.38059652  0.79429370  0.69756360     0.35530
C3822       C  0.40656234  0.79665636  0.69476711    -0.26470
C3823       C  0.41947480  0.78448911  0.67552378    -0.15710
C3824       C  0.40621250  0.76812346  0.65974060     0.36620
N3825       N  0.41896039  0.75464385  0.64041638    -0.89960
H3826       H  0.36998949  0.75405574  0.64957908     0.17730
H3827       H  0.41666957  0.80908465  0.70704507     0.17720
N3828       N  0.36808712  0.80760611  0.71717380    -0.88990
H3829       H  0.40631747  0.74438698  0.62972554     0.35100
H3830       H  0.43063665  0.74167965  0.64905337     0.40200
H3831       H  0.35702312  0.82125175  0.70885465     0.39820
H3832       H  0.38091969  0.81703815  0.72838689     0.34710
C3833       C  0.27500078  0.76400034  0.57857302    -0.27020
C3834       C  0.28364416  0.78285139  0.59462671    -0.15100
C3835       C  0.29476779  0.80437432  0.58448040     0.35530
C3836       C  0.29750053  0.80630637  0.55859889    -0.26470
C3837       C  0.28876857  0.78764779  0.54253042    -0.15710
C3838       C  0.27746405  0.76621663  0.55251001     0.36620
N3839       N  0.26879759  0.74681930  0.53625095    -0.89960
H3840       H  0.26635047  0.74752832  0.58641864     0.17730
H3841       H  0.30731406  0.82217309  0.55096973     0.17720
N3842       N  0.30450597  0.82354416  0.60047250    -0.88990
H3843       H  0.26069048  0.73241903  0.54657006     0.35100
H3844       H  0.28437121  0.73921834  0.52729747     0.40200
H3845       H  0.28934073  0.83259907  0.60872134     0.39820
H3846       H  0.31386488  0.83710262  0.59005490     0.34710
C3847       C  0.26537545  0.87925375  0.67015268    -0.27020
C3848       C  0.28424423  0.86441136  0.68083001    -0.15100
C3849       C  0.30565950  0.87637330  0.69061523     0.35530
C3850       C  0.30779585  0.90228923  0.68907861    -0.26470
C3851       C  0.28997800  0.91694006  0.67667022    -0.15710
C3852       C  0.26816827  0.90525833  0.66776068     0.36620
N3853       N  0.24908013  0.91949335  0.65576121    -0.89960
H3854       H  0.24860493  0.87061221  0.66294983     0.17730
H3855       H  0.32464069  0.91083012  0.69621917     0.17720
N3856       N  0.32577545  0.86228836  0.70132051    -0.88990
H3857       H  0.23241274  0.91680809  0.66554916     0.35100
H3858       H  0.24670115  0.91244234  0.63777656     0.40200
H3859       H  0.33480787  0.85320499  0.68662877     0.39820
H3860       H  0.33913409  0.87401986  0.70929244     0.34710
C3861       C  0.05468577  0.68306960  0.68638056    -0.27020
C3862       C  0.04687671  0.66867363  0.66602488    -0.15100
C3863       C  0.06512211  0.65657064  0.65105329     0.35530
C3864       C  0.09040494  0.65992366  0.65613213    -0.26470
C3865       C  0.09819460  0.67465851  0.67594577    -0.15710
C3866       C  0.08034859  0.68641564  0.69135120     0.36620
N3867       N  0.08834991  0.70135393  0.71206046    -0.89960
H3868       H  0.04083532  0.69219310  0.69792640     0.17730
H3869       H  0.10417750  0.65087129  0.64438906     0.17720
N3870       N  0.05881385  0.64065087  0.63053059    -0.88990
H3871       H  0.07292307  0.70828579  0.72178669     0.35100
H3872       H  0.09784094  0.71680021  0.70493133     0.40200
H3873       H  0.03990537  0.63641506  0.63041043     0.39820
H3874       H  0.06771618  0.62354703  0.63313001     0.34710
C3875       C  0.16730618  0.69427324  0.55147548    -0.27020
C3876       C  0.17578933  0.67207943  0.54036350    -0.15100
C3877       C  0.18792535  0.65428420  0.55542739     0.35530
C3878       C  0.19038401  0.65841820  0.58107544    -0.26470
C3879       C  0.18076117  0.67992815  0.59232217    -0.15710
C3880       C  0.16997198  0.69852494  0.57724734     0.36620
N3881       N  0.16190626  0.72163074  0.58810469    -0.89960
H3882       H  0.15802341  0.70809021  0.54008566     0.17730
H3883       H  0.19905026  0.64417034  0.59244439     0.17720
N3884       N  0.19641839  0.63120208  0.54519142    -0.88990
H3885       H  0.15444341  0.73333701  0.57446977     0.35100
H3886       H  0.17773100  0.73063979  0.59506964     0.40200
H3887       H  0.18742362  0.61682411  0.55479887     0.39820
H3888       H  0.21554647  0.62968007  0.54865591     0.34710
C3889       C  0.15781674  0.55852662  0.65458886    -0.27020
C3890       C  0.17233284  0.54150370  0.66817273    -0.15100
C3891       C  0.19167955  0.55058403  0.68357769     0.35530
C3892       C  0.19556659  0.57648351  0.68527057    -0.26470
C3893       C  0.18087408  0.59346257  0.67174043    -0.15710
C3894       C  0.16187233  0.58425957  0.65597030     0.36620
N3895       N  0.14561071  0.60029374  0.64193919    -0.89960
H3896       H  0.14282463  0.55170770  0.64286885     0.17730
H3897       H  0.21010278  0.58344953  0.69743544     0.17720
N3898       N  0.20730604  0.53435590  0.69802928    -0.88990
H3899       H  0.14876205  0.59677010  0.62304814     0.35100
H3900       H  0.14948272  0.61909861  0.64486253     0.40200
H3901       H  0.20259357  0.51569086  0.69536619     0.39820
H3902       H  0.20404400  0.53828949  0.71681829     0.34710
C3903       C  0.05535713  0.76786003  0.79856918    -0.27020
C3904       C  0.04212981  0.78608883  0.78525797    -0.15100
C3905       C  0.05502819  0.80056072  0.76737048     0.35530
C3906       C  0.08100240  0.79751780  0.76447830    -0.26470
C3907       C  0.09435380  0.78016038  0.77880103    -0.15710
C3908       C  0.08121222  0.76491844  0.79583268     0.36620
N3909       N  0.09422327  0.74718734  0.81112320    -0.89960
H3910       H  0.04567018  0.75663468  0.81227951     0.17730
H3911       H  0.09090495  0.80889734  0.75105497     0.17720
N3912       N  0.04206283  0.81904004  0.75300705    -0.88990
H3913       H  0.08175056  0.73720913  0.82230487     0.35100
H3914       H  0.10571048  0.75721786  0.82323864     0.40200
H3915       H  0.02983972  0.80963843  0.74111551     0.39820
H3916       H  0.05448585  0.82879476  0.74157687     0.34710
C3917       C  0.17475944  0.80350193  0.86966910    -0.27020
C3918       C  0.17630959  0.77881630  0.86190658    -0.15100
C3919       C  0.17683496  0.75949582  0.87987605     0.35530
C3920       C  0.17529794  0.76563596  0.90533355    -0.26470
C3921       C  0.17362022  0.79056358  0.91316648    -0.15710
C3922       C  0.17306419  0.80964075  0.89488283     0.36620
N3923       N  0.16973375  0.83524811  0.90179270    -0.89960
H3924       H  0.17445525  0.81817708  0.85580058     0.17730
H3925       H  0.17558745  0.75084935  0.91904703     0.17720
N3926       N  0.17971221  0.73373677  0.87315161    -0.88990
H3927       H  0.17038198  0.84686762  0.88618851     0.35100
H3928       H  0.15170730  0.83683112  0.90897620     0.40200
H3929       H  0.18126968  0.73144338  0.85392518     0.39820
H3930       H  0.16350932  0.72438348  0.87865993     0.34710
C3931       C  0.16534573  0.90385366  0.76597320    -0.27020
C3932       C  0.17713951  0.91604416  0.78588083    -0.15100
C3933       C  0.19212517  0.90184264  0.80225865     0.35530
C3934       C  0.19366864  0.87578163  0.79916661    -0.26470
C3935       C  0.18080354  0.86342860  0.77995665    -0.15710
C3936       C  0.16679982  0.87789220  0.76287718     0.36620
N3937       N  0.15330317  0.86624253  0.74289143    -0.89960
H3938       H  0.15379362  0.91455146  0.75335869     0.17730
H3939       H  0.20482481  0.86502701  0.81207060     0.17720
N3940       N  0.20468164  0.91361815  0.82274914    -0.88990
H3941       H  0.14469822  0.87957776  0.73162327     0.35100
H3942       H  0.13892351  0.85574020  0.75085347     0.40200
H3943       H  0.21861259  0.92503819  0.81529022     0.39820
H3944       H  0.21378577  0.90040053  0.83376032     0.34710
C3945       C  0.67467344  0.37830417  0.76190653    -0.27020
C3946       C  0.68339770  0.36390652  0.78201066    -0.15100
C3947       C  0.69073758  0.37635386  0.80414677     0.35530
C3948       C  0.68849747  0.40244629  0.80573688    -0.26470
C3949       C  0.67827724  0.41641267  0.78620535    -0.15710
C3950       C  0.67190599  0.40428465  0.76382350     0.36620
N3951       N  0.66215811  0.41838918  0.74328179    -0.89960
H3952       H  0.66944766  0.36923970  0.74467350     0.17730
H3953       H  0.69305967  0.41170337  0.82306703     0.17720
N3954       N  0.69975102  0.36260472  0.82525784    -0.88990
H3955       H  0.65820702  0.40672743  0.72820445     0.35100
H3956       H  0.67618408  0.43058423  0.73738436     0.40200
H3957       H  0.68468248  0.35254871  0.83247350     0.39820
H3958       H  0.70545176  0.37467552  0.83942964     0.34710
C3959       C  0.58962947  0.30175168  0.79240600    -0.27020
C3960       C  0.59748316  0.28164896  0.77786180    -0.15100
C3961       C  0.57936239  0.26584106  0.76671297     0.35530
C3962       C  0.55385823  0.27027910  0.77128448    -0.26470
C3963       C  0.54621635  0.29021730  0.78628080    -0.15710
C3964       C  0.56430518  0.30606637  0.79695031     0.36620
N3965       N  0.55691021  0.32670916  0.81229487    -0.89960
H3966       H  0.60344648  0.31392950  0.80072163     0.17730
H3967       H  0.53998581  0.25797909  0.76328120     0.17720
N3968       N  0.58592947  0.24550807  0.75052560    -0.88990
H3969       H  0.57247743  0.33626221  0.81910044     0.35100
H3970       H  0.54744021  0.31980677  0.82774066     0.40200
H3971       H  0.60510810  0.24458328  0.74741227     0.39820
H3972       H  0.57790545  0.24902324  0.73314974     0.34710
C3973       C  0.66981221  0.30174518  0.86910330    -0.27020
C3974       C  0.67792709  0.27824323  0.86178241    -0.15100
C3975       C  0.68274237  0.25987244  0.88015830     0.35530
C3976       C  0.67938720  0.26584946  0.90555685    -0.26470
C3977       C  0.67184777  0.28982227  0.91290861    -0.15710
C3978       C  0.66676892  0.30773322  0.89411764     0.36620
N3979       N  0.65761107  0.33209024  0.89967282    -0.89960
H3980       H  0.66579464  0.31574775  0.85513179     0.17730
H3981       H  0.68304962  0.25183203  0.91958251     0.17720
N3982       N  0.69137491  0.23531530  0.87386393    -0.88990
H3983       H  0.67133387  0.34177249  0.90946866     0.35100
H3984       H  0.64143324  0.33032067  0.91041358     0.40200
H3985       H  0.69340361  0.23313717  0.85466216     0.39820
H3986       H  0.67766013  0.22266657  0.87951798     0.34710
C3987       C  0.70167832  0.07786716  0.66843772    -0.27020
C3988       C  0.68192089  0.09205595  0.67811341    -0.15100
C3989       C  0.65981583  0.07978730  0.68574500     0.35530
C3990       C  0.65764114  0.05399285  0.68271275    -0.26470
C3991       C  0.67685065  0.03995783  0.67177983    -0.15710
C3992       C  0.69940719  0.05194661  0.66514520     0.36620
N3993       N  0.72000734  0.03781038  0.65537289    -0.89960
H3994       H  0.71886354  0.08711432  0.66313997     0.17730
H3995       H  0.64010463  0.04511937  0.68747437     0.17720
N3996       N  0.63867555  0.09315458  0.69518016    -0.88990
H3997       H  0.73589327  0.04902501  0.65386707     0.35100
H3998       H  0.71553869  0.03251382  0.63721317     0.40200
H3999       H  0.63351054  0.10662988  0.68212453     0.39820
H4000       H  0.64367869  0.10196993  0.71176840     0.34710
C4001       C  0.59143711  0.16441228  0.65263117    -0.27020
C4002       C  0.59865979  0.17397775  0.67567395    -0.15100
C4003       C  0.58022330  0.18081353  0.69338004     0.35530
C4004       C  0.55485594  0.17784062  0.68738020    -0.26470
C4005       C  0.54764236  0.16871367  0.66402100    -0.15710
C4006       C  0.56618403  0.16159621  0.64660722     0.36620
N4007       N  0.55930616  0.15105163  0.62298233    -0.89960
H4008       H  0.60564464  0.15908620  0.63924787     0.17730
H4009       H  0.54072869  0.18312287  0.70084011     0.17720
N4010       N  0.58643234  0.19116609  0.71727297    -0.88990
H4011       H  0.57513632  0.14700224  0.61231371     0.35100
H4012       H  0.55045991  0.13405758  0.62642053     0.40200
H4013       H  0.60567885  0.19282628  0.71962893     0.39820
H4014       H  0.58015786  0.17873172  0.73088137     0.34710
C4015       C  0.69201461  0.18247405  0.55125141    -0.27020
C4016       C  0.67291545  0.16643414  0.54340867    -0.15100
C4017       C  0.65864721  0.15347239  0.56141420     0.35530
C4018       C  0.66304593  0.15752541  0.58680977    -0.26470
C4019       C  0.68159274  0.17397909  0.59472436    -0.15710
C4020       C  0.69655012  0.18635851  0.57688392     0.36620
N4021       N  0.71541011  0.20363879  0.58484117    -0.89960
H4022       H  0.70288867  0.19241499  0.53743990     0.17730
H4023       H  0.65184903  0.14784827  0.60057750     0.17720
N4024       N  0.63991641  0.13588706  0.55383064    -0.88990
H4025       H  0.72409717  0.21184413  0.56944977     0.35100
H4026       H  0.72919703  0.19350884  0.59412726     0.40200
H4027       H  0.62531080  0.14596505  0.54595642     0.39820
H4028       H  0.63236675  0.12668790  0.56925456     0.34710
C4029       C  0.79890554  0.36986942  0.65634580    -0.27020
C4030       C  0.78685360  0.36190681  0.67794939    -0.15100
C4031       C  0.77795601  0.37973973  0.69518550     0.35530
C4032       C  0.78135011  0.40544846  0.69028485    -0.26470
C4033       C  0.79287657  0.41342539  0.66817539    -0.15710
C4034       C  0.80208745  0.39529912  0.65128352     0.36620
N4035       N  0.81505433  0.40280669  0.62908510    -0.89960
H4036       H  0.80584099  0.35610090  0.64328850     0.17730
H4037       H  0.77444735  0.41920960  0.70333684     0.17720
N4038       N  0.76565101  0.37165760  0.71755654    -0.88990
H4039       H  0.82003570  0.38734517  0.61833341     0.35100
H4040       H  0.83173418  0.41120332  0.63461158     0.40200
H4041       H  0.74915666  0.36265063  0.71237203     0.39820
H4042       H  0.76040368  0.38699771  0.72835358     0.34710
C4043       C  0.91098043  0.27471474  0.69000751    -0.27020
C4044       C  0.91911072  0.28804138  0.66905695    -0.15100
C4045       C  0.90105709  0.29860450  0.65281016     0.35530
C4046       C  0.87582798  0.29358240  0.65643451    -0.26470
C4047       C  0.86766556  0.27985543  0.67685025    -0.15710
C4048       C  0.88524237  0.27065092  0.69418915     0.36620
N4049       N  0.87695156  0.25660538  0.71542008    -0.89960
H4050       H  0.92465529  0.26681781  0.70256059     0.17730
H4051       H  0.86233244  0.30121747  0.64348958     0.17720
N4052       N  0.90757201  0.31464292  0.63241123    -0.88990
H4053       H  0.89217677  0.25112249  0.72625984     0.35100
H4054       H  0.86860790  0.24028117  0.70884163     0.40200
H4055       H  0.92620018  0.31971801  0.63330253     0.39820
H4056       H  0.89757282  0.33124106  0.63408828     0.34710
C4057       C  0.79632439  0.26278529  0.57892799    -0.27020
C4058       C  0.78110422  0.27913439  0.59271257    -0.15100
C4059       C  0.76677539  0.29696647  0.57969643     0.35530
C4060       C  0.76988533  0.29960626  0.55384132    -0.26470
C4061       C  0.78680856  0.28476144  0.54027407    -0.15710
C4062       C  0.79930972  0.26532544  0.55306910     0.36620
N4063       N  0.81580084  0.24836610  0.54070449    -0.89960
H4064       H  0.80680266  0.24839642  0.58842487     0.17730
H4065       H  0.75956227  0.31411435  0.54436041     0.17720
N4066       N  0.74923195  0.31253674  0.59270148    -0.88990
H4067       H  0.83071625  0.25832141  0.53314827     0.35100
H4068       H  0.80598786  0.23949236  0.52643004     0.40200
H4069       H  0.73510984  0.30099617  0.59961301     0.39820
H4070       H  0.74062802  0.32501017  0.58048854     0.34710
C4071       C  0.79473368  0.05139468  0.76749149    -0.27020
C4072       C  0.78553841  0.04140009  0.78993449    -0.15100
C4073       C  0.77457264  0.05790438  0.80757528     0.35530
C4074       C  0.77407843  0.08354962  0.80277163    -0.26470
C4075       C  0.78408799  0.09353926  0.78088521    -0.15710
C4076       C  0.79415903  0.07727499  0.76278611     0.36620
N4077       N  0.80318180  0.08692416  0.73949934    -0.89960
H4078       H  0.80318368  0.03910263  0.75389152     0.17730
H4079       H  0.76602799  0.09599327  0.81650482     0.17720
N4080       N  0.76451021  0.04883743  0.83071965    -0.88990
H4081       H  0.80849684  0.07238011  0.72768100     0.35100
H4082       H  0.81939544  0.09708537  0.74317775     0.40200
H4083       H  0.74872134  0.03821307  0.82650876     0.39820
H4084       H  0.75840909  0.06349818  0.84201002     0.34710
C4085       C  0.88137713  0.16269603  0.76625586    -0.27020
C4086       C  0.86804491  0.17963491  0.78117214    -0.15100
C4087       C  0.88137413  0.19528299  0.79761663     0.35530
C4088       C  0.90724996  0.19215022  0.80026585    -0.26470
C4089       C  0.92035066  0.17398286  0.78665773    -0.15710
C4090       C  0.90729824  0.15971410  0.76886295     0.36620
N4091       N  0.91995052  0.14128523  0.75427435    -0.89960
H4092       H  0.87152096  0.15095662  0.75313081     0.17730
H4093       H  0.91714055  0.20349009  0.81370920     0.17720
N4094       N  0.86865256  0.21422361  0.81168879    -0.88990
H4095       H  0.91717868  0.14551073  0.73548680     0.35100
H4096       H  0.91168631  0.12400587  0.75782214     0.40200
H4097       H  0.86172108  0.22727051  0.79901865     0.39820
H4098       H  0.88111354  0.22379282  0.82319771     0.34710
C4099       C  0.77129850  0.15822167  0.87747437    -0.27020
C4100       C  0.78245612  0.17833726  0.86493024    -0.15100
C4101       C  0.79509005  0.19671269  0.87910929     0.35530
C4102       C  0.79741273  0.19369790  0.90497308    -0.26470
C4103       C  0.78752673  0.17285839  0.91724068    -0.15710
C4104       C  0.77345448  0.15539372  0.90343012     0.36620
N4105       N  0.76253813  0.13411745  0.91547230    -0.89960
H4106       H  0.76105548  0.14438331  0.86695394     0.17730
H4107       H  0.80815345  0.20715727  0.91550888     0.17720
N4108       N  0.80629328  0.21799564  0.86728978    -0.88990
H4109       H  0.75400267  0.12240440  0.90247062     0.35100
H4110       H  0.74833327  0.14061970  0.92714250     0.40200
H4111       H  0.82135020  0.21157794  0.85667164     0.39820
H4112       H  0.81376925  0.23016856  0.88051978     0.34710
C4113       C  0.66813832  0.55157404  0.76619022    -0.27020
C4114       C  0.67745337  0.54224529  0.78885184    -0.15100
C4115       C  0.68759224  0.55924579  0.80634639     0.35530
C4116       C  0.68768379  0.58465213  0.80117750    -0.26470
C4117       C  0.67786972  0.59395584  0.77898700    -0.15710
C4118       C  0.66834913  0.57733990  0.76103603     0.36620
N4119       N  0.65925043  0.58660928  0.73766370    -0.89960
H4120       H  0.66009920  0.53886721  0.75275072     0.17730
H4121       H  0.69533696  0.59733083  0.81490781     0.17720
N4122       N  0.69738943  0.55105376  0.82978041    -0.88990
H4123       H  0.65284714  0.57195135  0.72656377     0.35100
H4124       H  0.67435925  0.59455164  0.72821522     0.40200
H4125       H  0.68725328  0.55972600  0.84400834     0.39820
H4126       H  0.71595179  0.55691076  0.83105894     0.34710
C4127       C  0.66622684  0.69395669  0.87574159    -0.27020
C4128       C  0.67999204  0.67562167  0.86296107    -0.15100
C4129       C  0.69151553  0.65646385  0.87701765     0.35530
C4130       C  0.68825579  0.65575343  0.90308687    -0.26470
C4131       C  0.67331431  0.67332612  0.91550180    -0.15710
C4132       C  0.66276477  0.69303685  0.90166923     0.36620
N4133       N  0.64816709  0.71187314  0.91395335    -0.89960
H4134       H  0.65764519  0.70899472  0.86541031     0.17730
H4135       H  0.69620082  0.64045170  0.91355174     0.17720
N4136       N  0.70628801  0.63763364  0.86496082    -0.88990
H4137       H  0.64149280  0.72491435  0.90114499     0.35100
H4138       H  0.66003757  0.72149097  0.92602742     0.40200
H4139       H  0.69408291  0.62629314  0.85487788     0.39820
H4140       H  0.71473249  0.62604723  0.87812142     0.34710
C4141       C  0.57891154  0.69109567  0.76513674    -0.27020
C4142       C  0.59594582  0.67665301  0.77883287    -0.15100
C4143       C  0.58710604  0.65790323  0.79474865     0.35530
C4144       C  0.56129450  0.65471075  0.79765856    -0.26470
C4145       C  0.54409715  0.66985594  0.78503309    -0.15710
C4146       C  0.55296495  0.68806978  0.76819238     0.36620
N4147       N  0.53644942  0.70391775  0.75432452    -0.89960
H4148       H  0.58582384  0.70521171  0.75246295     0.17730
H4149       H  0.55444896  0.64065077  0.81041022     0.17720
N4150       N  0.60443936  0.64182365  0.80737174    -0.88990
H4151       H  0.53945778  0.72221381  0.76026477     0.35100
H4152       H  0.51777871  0.69978539  0.75804884     0.40200
H4153       H  0.61488322  0.65268505  0.81968573     0.39820
H4154       H  0.59497601  0.62871465  0.81820972     0.34710
C4155       C  0.78320197  0.57738508  0.69754611    -0.27020
C4156       C  0.78405521  0.59346668  0.67694998    -0.15100
C4157       C  0.78549757  0.58334346  0.65279343     0.35530
C4158       C  0.78695886  0.55736025  0.64975381    -0.26470
C4159       C  0.78715864  0.54120723  0.67031933    -0.15710
C4160       C  0.78492011  0.55131443  0.69448336     0.36620
N4161       N  0.78414602  0.53508835  0.71574107    -0.89960
H4162       H  0.78140620  0.58522500  0.71605256     0.17730
H4163       H  0.78925945  0.54982288  0.63124274     0.17720
N4164       N  0.78666222  0.59953931  0.63150677    -0.88990
H4165       H  0.78148054  0.54539000  0.73205065     0.35100
H4166       H  0.80159665  0.52657313  0.71736658     0.40200
H4167       H  0.76945975  0.60858098  0.63006416     0.39820
H4168       H  0.78885293  0.58920349  0.61514394     0.34710
C4169       C  0.76422772  0.66573107  0.57948060    -0.27020
C4170       C  0.78295576  0.67609347  0.59453122    -0.15100
C4171       C  0.80498161  0.68491789  0.58342802     0.35530
C4172       C  0.80808671  0.68328460  0.55770420    -0.26470
C4173       C  0.78980766  0.67235042  0.54240972    -0.15710
C4174       C  0.76742354  0.66386014  0.55350159     0.36620
N4175       N  0.74803466  0.65314945  0.53864658    -0.89960
H4176       H  0.74703755  0.65917920  0.58787995     0.17730
H4177       H  0.82564725  0.68963376  0.54993927     0.17720
N4178       N  0.82492994  0.69437771  0.59839735    -0.88990
H4179       H  0.73179857  0.66360060  0.54139165     0.35100
H4180       H  0.74469491  0.63509179  0.54511424     0.40200
H4181       H  0.82894484  0.71249168  0.59249571     0.39820
H4182       H  0.84065098  0.68332992  0.59505530     0.34710
C4183       C  0.88212977  0.66923434  0.69519199    -0.27020
C4184       C  0.86840739  0.68132082  0.67644803    -0.15100
C4185       C  0.88165612  0.69286492  0.65675615     0.35530
C4186       C  0.90773823  0.69035443  0.65515529    -0.26470
C4187       C  0.92102409  0.67644166  0.67278917    -0.15710
C4188       C  0.90819118  0.66679785  0.69364870     0.36620
N4189       N  0.92164197  0.65382602  0.71281217    -0.89960
H4190       H  0.87247457  0.66101122  0.71089515     0.17730
H4191       H  0.91735028  0.69788711  0.63906593     0.17720
N4192       N  0.86883679  0.70681492  0.63803521    -0.88990
H4193       H  0.90949396  0.64763543  0.72674861     0.35100
H4194       H  0.93372646  0.66662020  0.72116135     0.40200
H4195       H  0.87576604  0.72501267  0.63829778     0.39820
H4196       H  0.87330724  0.69906242  0.62074635     0.34710
C4197       C  0.68911140  0.87946569  0.69236260    -0.27020
C4198       C  0.68056362  0.86284193  0.67396915    -0.15100
C4199       C  0.66967342  0.87244448  0.65197179     0.35530
C4200       C  0.66792256  0.89819071  0.64888785    -0.26470
C4201       C  0.67609621  0.91475073  0.66731571    -0.15710
C4202       C  0.68672799  0.90543719  0.68933462     0.36620
N4203       N  0.69495678  0.92228681  0.70841459    -0.89960
H4204       H  0.69760865  0.87214305  0.70912653     0.17730
H4205       H  0.65865388  0.90531156  0.63244936     0.17720
N4206       N  0.65857729  0.85691670  0.63316799    -0.88990
H4207       H  0.70264799  0.91240829  0.72331161     0.35100
H4208       H  0.67922980  0.93148913  0.71536794     0.40200
H4209       H  0.65695835  0.83838606  0.63871091     0.39820
H4210       H  0.67002241  0.85755703  0.61740014     0.34710
C4211       C  0.69051580  0.80174935  0.58329298    -0.27020
C4212       C  0.68121234  0.77975525  0.59361180    -0.15100
C4213       C  0.67036210  0.76165357  0.57795666     0.35530
C4214       C  0.66780434  0.76663855  0.55232590    -0.26470
C4215       C  0.67594976  0.78934372  0.54207167    -0.15710
C4216       C  0.68790180  0.80683747  0.55791398     0.36620
N4217       N  0.69677235  0.83026111  0.54865394    -0.89960
H4218       H  0.69913148  0.81559445  0.59520908     0.17730
H4219       H  0.65868916  0.75305865  0.54052109     0.17720
N4220       N  0.66202663  0.73833435  0.58813236    -0.88990
H4221       H  0.71584236  0.83158269  0.55251631     0.35100
H4222       H  0.68760437  0.84448706  0.55833115     0.40200
H4223       H  0.67772829  0.72897204  0.59488376     0.39820
H4224       H  0.65444805  0.72708732  0.57416706     0.34710
C4225       C  0.58089905  0.76306415  0.68369820    -0.27020
C4226       C  0.59714943  0.78241230  0.67659018    -0.15100
C4227       C  0.58711961  0.80468537  0.66694839     0.35530
C4228       C  0.56121155  0.80686885  0.66416977    -0.26470
C4229       C  0.54495606  0.78761175  0.67114106    -0.15710
C4230       C  0.55487720  0.76541760  0.68118632     0.36620
N4231       N  0.53929494  0.74506611  0.68899352    -0.89960
H4232       H  0.58848429  0.74601364  0.69137784     0.17730
H4233       H  0.55373569  0.82345787  0.65556148     0.17720
N4234       N  0.60325730  0.82444833  0.65865450    -0.88990
H4235       H  0.54319745  0.72989802  0.67742290     0.35100
H4236       H  0.52039847  0.74922266  0.68677479     0.40200
H4237       H  0.61111199  0.83268887  0.67442629     0.39820
H4238       H  0.59296237  0.83846887  0.64989650     0.34710
C4239       C  0.80164106  0.87035450  0.79773169    -0.27020
C4240       C  0.78444004  0.86245015  0.77995209    -0.15100
C4241       C  0.77021465  0.88020881  0.76672778     0.35530
C4242       C  0.77394058  0.90584624  0.77136623    -0.26470
C4243       C  0.79154952  0.91372073  0.78897745    -0.15710
C4244       C  0.80524010  0.89573674  0.80252593     0.36620
N4245       N  0.82256048  0.90331500  0.82144619    -0.89960
H4246       H  0.81217684  0.85659521  0.80808754     0.17730
H4247       H  0.76357764  0.91963291  0.76090897     0.17720
N4248       N  0.75240964  0.87211975  0.74844757    -0.88990
H4249       H  0.82985804  0.88786090  0.83076443     0.35100
H4250       H  0.83758594  0.91174216  0.81248184     0.40200
H4251       H  0.76226977  0.86318994  0.73419862     0.39820
H4252       H  0.74353829  0.88744218  0.74035481     0.34710
C4253       C  0.80118640  0.76957856  0.87494679    -0.27020
C4254       C  0.78016209  0.78120885  0.86472950    -0.15100
C4255       C  0.76314078  0.79339293  0.88094873     0.35530
C4256       C  0.76861170  0.79493931  0.90652277    -0.26470
C4257       C  0.79017997  0.78394900  0.91662240    -0.15710
C4258       C  0.80626665  0.77043595  0.90049893     0.36620
N4259       N  0.82810217  0.75800214  0.90987460    -0.89960
H4260       H  0.81404550  0.75984285  0.86275230     0.17730
H4261       H  0.75594142  0.80511743  0.91852843     0.17720
N4262       N  0.73977708  0.80351056  0.87262273    -0.88990
H4263       H  0.83838171  0.74988045  0.89543712     0.35100
H4264       H  0.82201308  0.74341021  0.92124236     0.40200
H4265       H  0.73573041  0.79861052  0.85430500     0.39820
H4266       H  0.74104915  0.82291290  0.87353983     0.34710
C4267       C  0.87188057  0.80314677  0.79449813    -0.27020
C4268       C  0.86475850  0.78018298  0.78463340    -0.15100
C4269       C  0.88321186  0.76313435  0.77676436     0.35530
C4270       C  0.90870963  0.76940904  0.77929814    -0.26470
C4271       C  0.91586148  0.79270227  0.78881791    -0.15710
C4272       C  0.89714738  0.80962696  0.79667683     0.36620
N4273       N  0.90386382  0.83325457  0.80730494    -0.89960
H4274       H  0.85758575  0.81620332  0.80033273     0.17730
H4275       H  0.92297238  0.75635159  0.77345284     0.17720
N4276       N  0.87595186  0.73980386  0.76585029    -0.88990
H4277       H  0.88795616  0.84347894  0.81209469     0.35100
H4278       H  0.91340312  0.82981140  0.82388206     0.40200
H4279       H  0.86665995  0.72951118  0.77953630     0.39820
H4280       H  0.89170891  0.72949739  0.76075695     0.34710
C4281       C  0.38129748  0.26446271  0.15905480    -0.27020
C4282       C  0.36801930  0.27796824  0.17716303    -0.15100
C4283       C  0.38127796  0.29394985  0.19340247     0.35530
C4284       C  0.40714627  0.29655022  0.19064824    -0.26470
C4285       C  0.42024991  0.28420640  0.17165861    -0.15710
C4286       C  0.40728398  0.26727567  0.15618997     0.36620
N4287       N  0.42018775  0.25393391  0.13686804    -0.89960
H4288       H  0.37132961  0.25180689  0.14690780     0.17730
H4289       H  0.41695214  0.30951997  0.20260513     0.17720
N4290       N  0.36840156  0.30837080  0.21199383    -0.88990
H4291       H  0.40771202  0.24318291  0.12646871     0.35100
H4292       H  0.43234282  0.24142043  0.14551214     0.40200
H4293       H  0.35717762  0.32127868  0.20268719     0.39820
H4294       H  0.38097961  0.31871645  0.22267870     0.34710
C4295       C  0.26846031  0.30101522  0.05470197    -0.27020
C4296       C  0.28653474  0.28761258  0.04123725    -0.15100
C4297       C  0.30116525  0.26983288  0.05407669     0.35530
C4298       C  0.29815454  0.26682649  0.08002540    -0.26470
C4299       C  0.28089812  0.28113187  0.09369864    -0.15710
C4300       C  0.26546548  0.29808185  0.08059946     0.36620
N4301       N  0.24666999  0.31226666  0.09344201    -0.89960
H4302       H  0.25709110  0.31461683  0.04506694     0.17730
H4303       H  0.30987149  0.25358899  0.08973915     0.17720
N4304       N  0.31992221  0.25575673  0.04108695    -0.88990
H4305       H  0.23538475  0.32180804  0.08077147     0.35100
H4306       H  0.25582910  0.32599003  0.10377168     0.40200
H4307       H  0.31070602  0.24355883  0.02903692     0.39820
H4308       H  0.33000847  0.24462388  0.05346072     0.34710
C4309       C  0.27619413  0.37049410  0.15439854    -0.27020
C4310       C  0.28482586  0.36129065  0.17715979    -0.15100
C4311       C  0.29399724  0.37814836  0.19511170     0.35530
C4312       C  0.29500784  0.40387360  0.18949665    -0.26470
C4313       C  0.28695255  0.41311448  0.16628879    -0.15710
C4314       C  0.27733710  0.39590419  0.14867605     0.36620
N4315       N  0.26923288  0.40385127  0.12454601    -0.89960
H4316       H  0.26891019  0.35770144  0.14057887     0.17730
H4317       H  0.30261356  0.41664313  0.20312555     0.17720
N4318       N  0.30195937  0.36915602  0.21900134    -0.88990
H4319       H  0.25059888  0.39854617  0.12230110     0.35100
H4320       H  0.27988444  0.39445762  0.11118472     0.40200
H4321       H  0.28632891  0.36168288  0.22797644     0.39820
H4322       H  0.30820817  0.38389448  0.23008194     0.34710
C4323       C  0.37882212  0.19416973  0.29488959    -0.27020
C4324       C  0.36641652  0.17607171  0.28060908    -0.15100
C4325       C  0.38086930  0.15734418  0.26849145     0.35530
C4326       C  0.40682318  0.15702375  0.27175369    -0.26470
C4327       C  0.41880563  0.17406882  0.28744501    -0.15710
C4328       C  0.40478307  0.19345607  0.29834383     0.36620
N4329       N  0.41691914  0.21210180  0.31324743    -0.89960
H4330       H  0.36814478  0.20896851  0.30355671     0.17730
H4331       H  0.41743393  0.14195414  0.26346338     0.17720
N4332       N  0.37025975  0.13758715  0.25382213    -0.88990
H4333       H  0.40395380  0.22497514  0.32004859     0.35100
H4334       H  0.42905409  0.22195556  0.30159536     0.40200
H4335       H  0.35090794  0.13776226  0.25402757     0.39820
H4336       H  0.37534466  0.12071771  0.26211185     0.34710
C4337       C  0.26993461  0.18677046  0.38053061    -0.27020
C4338       C  0.28141335  0.16978608  0.36412954    -0.15100
C4339       C  0.29534883  0.14982684  0.37393473     0.35530
C4340       C  0.29821609  0.14777994  0.39984521    -0.26470
C4341       C  0.28696500  0.16480820  0.41625080    -0.15710
C4342       C  0.27250248  0.18440185  0.40658922     0.36620
N4343       N  0.26095908  0.20199308  0.42314832    -0.89960
H4344       H  0.25912336  0.20202660  0.37294064     0.17730
H4345       H  0.30996752  0.13316830  0.40731622     0.17720
N4346       N  0.30770985  0.13256247  0.35756471    -0.88990
H4347       H  0.25081702  0.21519070  0.41305106     0.35100
H4348       H  0.27517847  0.21168443  0.43227862     0.40200
H4349       H  0.29395002  0.12212447  0.34857091     0.39820
H4350       H  0.31836597  0.11985241  0.36776675     0.34710
C4351       C  0.30643170  0.05130933  0.27126713    -0.27020
C4352       C  0.28755193  0.03819364  0.28375792    -0.15100
C4353       C  0.26547446  0.05101073  0.29051841     0.35530
C4354       C  0.26405067  0.07687774  0.28690213    -0.26470
C4355       C  0.28386503  0.09053980  0.27626525    -0.15710
C4356       C  0.30505736  0.07710951  0.26774894     0.36620
N4357       N  0.32609794  0.08904076  0.25651603    -0.89960
H4358       H  0.32343106  0.04177491  0.26587091     0.17730
H4359       H  0.24722963  0.08635463  0.29288169     0.17720
N4360       N  0.24422205  0.03852296  0.30115428    -0.88990
H4361       H  0.32019084  0.09869206  0.24069960     0.35100
H4362       H  0.33365607  0.10138557  0.26948283     0.40200
H4363       H  0.24650074  0.01923380  0.30075727     0.39820
H4364       H  0.22894703  0.04205023  0.28958997     0.34710
C4365       C  0.05362604  0.26523096  0.28262436    -0.27020
C4366       C  0.04610266  0.29025014  0.28490428    -0.15100
C4367       C  0.06494726  0.30888824  0.28550518     0.35530
C4368       C  0.08997580  0.30251362  0.28372879    -0.26470
C4369       C  0.09745086  0.27783815  0.28156217    -0.15710
C4370       C  0.07912420  0.25877630  0.28069566     0.36620
N4371       N  0.08552861  0.23301716  0.27720413    -0.89960
H4372       H  0.03967199  0.25063238  0.28228787     0.17730
H4373       H  0.10390609  0.31717229  0.28445910     0.17720
N4374       N  0.05957068  0.33450274  0.28985115    -0.88990
H4375       H  0.08001813  0.22338151  0.29319813     0.35100
H4376       H  0.10477629  0.23058718  0.27546889     0.40200
H4377       H  0.04944122  0.33540115  0.30640772     0.39820
H4378       H  0.04915929  0.34154498  0.27502249     0.34710
C4379       C  0.15976432  0.27283811  0.40321477    -0.27020
C4380       C  0.17751179  0.28710496  0.41608760    -0.15100
C4381       C  0.19818372  0.29670342  0.40299925     0.35530
C4382       C  0.20019660  0.29289096  0.37724634    -0.26470
C4383       C  0.18196230  0.27946263  0.36414536    -0.15710
C4384       C  0.16168916  0.26893717  0.37737997     0.36620
N4385       N  0.14231321  0.25571231  0.36442823    -0.89960
H4386       H  0.14358279  0.26581879  0.41309438     0.17730
H4387       H  0.21607258  0.30064607  0.36740924     0.17720
N4388       N  0.21709554  0.31052513  0.41578496    -0.88990
H4389       H  0.12758302  0.25147693  0.37649920     0.35100
H4390       H  0.14970408  0.23862073  0.35875163     0.40200
H4391       H  0.21822229  0.32819406  0.40769260     0.39820
H4392       H  0.23416997  0.30152490  0.41295807     0.34710
C4393       C  0.16731835  0.37705161  0.26410537    -0.27020
C4394       C  0.18011667  0.36235094  0.28155810    -0.15100
C4395       C  0.19211971  0.37407634  0.30175520     0.35530
C4396       C  0.19097739  0.40005371  0.30414539    -0.26470
C4397       C  0.17751037  0.41493114  0.28725539    -0.15710
C4398       C  0.16602899  0.40322788  0.26659448     0.36620
N4399       N  0.15256489  0.41771946  0.24859573    -0.89960
H4400       H  0.15847769  0.36808740  0.24834586     0.17730
H4401       H  0.19981907  0.40858555  0.32013605     0.17720
N4402       N  0.20472459  0.35947385  0.32033966    -0.88990
H4403       H  0.14464871  0.40619010  0.23505274     0.35100
H4404       H  0.16552720  0.42898957  0.23936969     0.40200
H4405       H  0.19125646  0.34867081  0.32941238     0.39820
H4406       H  0.21269527  0.37091895  0.33392215     0.34710
C4407       C  0.06105801  0.17049155  0.15080345    -0.27020
C4408       C  0.04433431  0.17366011  0.17075909    -0.15100
C4409       C  0.05393806  0.17977364  0.19453513     0.35530
C4410       C  0.07998106  0.18141458  0.19784349    -0.26470
C4411       C  0.09650190  0.17718822  0.17794679    -0.15710
C4412       C  0.08699440  0.17212729  0.15418334     0.36620
N4413       N  0.10387948  0.16835747  0.13369547    -0.89960
H4414       H  0.05396226  0.16549215  0.13270556     0.17730
H4415       H  0.08736367  0.18595172  0.21606033     0.17720
N4416       N  0.03797339  0.18426303  0.21559610    -0.88990
H4417       H  0.09410878  0.16603989  0.11708988     0.35100
H4418       H  0.11363299  0.15181185  0.13695046     0.40200
H4419       H  0.01917742  0.18312959  0.21063872     0.39820
H4420       H  0.04095651  0.20262626  0.22136149     0.34710
C4421       C  0.15960929  0.19052402  0.05527439    -0.27020
C4422       C  0.17503766  0.17442500  0.04142474    -0.15100
C4423       C  0.19494991  0.16232280  0.05377387     0.35530
C4424       C  0.19729913  0.16479106  0.07984112    -0.26470
C4425       C  0.18038903  0.17920936  0.09385438    -0.15710
C4426       C  0.16209891  0.19320171  0.08110060     0.36620
N4427       N  0.14591198  0.21001543  0.09432676    -0.89960
H4428       H  0.14478790  0.20060961  0.04600965     0.17730
H4429       H  0.21199727  0.15474472  0.08933435     0.17720
N4430       N  0.21251932  0.14736716  0.04011707    -0.88990
H4431       H  0.13306266  0.21830107  0.08227473     0.35100
H4432       H  0.15699272  0.22443210  0.10132360     0.40200
H4433       H  0.20317347  0.13161198  0.03363294     0.39820
H4434       H  0.22659588  0.14083753  0.05188003     0.34710
C4435       C  0.18420393  0.04972750  0.19005011    -0.27020
C4436       C  0.17086868  0.04199861  0.16893776    -0.15100
C4437       C  0.16018884  0.06035493  0.15315847     0.35530
C4438       C  0.16439365  0.08546256  0.15774966    -0.26470
C4439       C  0.17815748  0.09324634  0.17822685    -0.15710
C4440       C  0.18783997  0.07536719  0.19498231     0.36620
N4441       N  0.20229656  0.08321203  0.21608708    -0.89960
H4442       H  0.19230465  0.03584405  0.20222537     0.17730
H4443       H  0.15636970  0.09916811  0.14526887     0.17720
N4444       N  0.14409251  0.05449008  0.13271819    -0.88990
H4445       H  0.20897747  0.06775321  0.22584650     0.35100
H4446       H  0.19031787  0.09262013  0.22824346     0.40200
H4447       H  0.14006141  0.03563715  0.13167239     0.39820
H4448       H  0.15303906  0.05982245  0.11632576     0.34710
loop_ 
_geom_bond_atom_site_label_1 
_geom_bond_atom_site_label_2 
_geom_bond_distance 
_geom_bond_site_symmetry_2 
_ccdc_geom_bond_type 
O1          Cr19   1.972       .  S
O1            C9   1.263       .  A
O2          Cr19   2.018       .  S
O2            C3   1.268       .  A
C3            O4   1.261       .  A
C3         C4425   1.492       .  S
O4          Cr20   1.971       .  S
O5          Cr20   2.013       .  S
O5            C6   1.267       .  A
C6            O7   1.263       .  A
C6         C4411   1.474       .  S
O7          Cr21   1.979       .  S
O8          Cr21   2.012       .  S
O8            C9   1.265       .  A
C9         C4439   1.472       .  S
O10         Cr19   2.009       .  S
O10          C18   1.264       .  A
O11         Cr19   1.969       .  S
O11          C12   1.258       .  A
C12          O13   1.265       .  A
C12          C78   1.466       .  S
O13         Cr20   2.011       .  S
O14         Cr20   1.962       .  S
O14          C15   1.256       .  A
C15          O16   1.262       .  A
C15          C37   1.456       .  S
O16         Cr21   2.001       .  S
O17         Cr21   1.959       .  S
O17          C18   1.257       .  A
C18          C56   1.458       .  S
Cr19         O22   1.774       .  S
Cr20         O22   1.770       .  S
Cr21         O22   1.778       .  S
O23         Cr41   2.003       .  S
O23          C31   1.265       .  A
O24         Cr41   1.977       .  S
O24          C25   1.264       .  A
C25          O26   1.267       .  A
C25        C4383   1.482       .  S
O26         Cr42   2.006       .  S
O27         Cr42   1.980       .  S
O27          C28   1.260       .  A
C28          O29   1.263       .  A
C28        C4369   1.471       .  S
O29         Cr43   1.999       .  S
O30         Cr43   1.987       .  S
O30          C31   1.263       .  A
C31        C4394   1.485       .  S
O32         Cr41   1.975       .  S
O32          C40   1.259       .  A
O33         Cr41   1.998       .  S
O33          C34   1.260       .  A
C34          O35   1.259       .  A
C34          C59   1.464       .  S
O35         Cr42   1.980       .  S
O36         Cr42   2.005       .  S
O36          C37   1.264       .  A
C37          O38   1.255       .  A
O38         Cr43   1.957       .  S
O39         Cr43   1.996       .  S
O39          C40   1.261       .  A
C40          C84   1.458       .  S
Cr41         O44   1.779       .  S
Cr42         O44   1.785       .  S
Cr43         O44   1.782       .  S
O45         Cr63   2.006       .  S
O45          C53   1.264       .  A
O46         Cr63   1.987       .  S
O46          C47   1.263       .  A
C47          O48   1.267       .  A
C47        C4355   1.501       .  S
O48         Cr64   2.010       .  S
O49         Cr64   1.980       .  S
O49          C50   1.260       .  A
C50          O51   1.267       .  A
C50        C4338   1.482       .  S
O51         Cr65   2.020       .  S
O52         Cr65   1.984       .  S
O52          C53   1.265       .  A
C53        C4324   1.487       .  S
O54         Cr63   1.977       .  S
O54          C62   1.260       .  A
O55         Cr63   2.011       .  S
O55          C56   1.264       .  A
C56          O57   1.254       .  A
O57         Cr64   1.955       .  S
O58         Cr64   2.007       .  S
O58          C59   1.265       .  A
C59          O60   1.258       .  A
O60         Cr65   1.970       .  S
O61         Cr65   2.011       .  S
O61          C62   1.266       .  A
C62          C81   1.467       .  S
Cr63         O66   1.779       .  S
Cr64         O66   1.774       .  S
Cr65         O66   1.776       .  S
O67         Cr85   2.003       .  S
O67          C75   1.267       .  A
O68         Cr85   1.980       .  S
O68          C69   1.261       .  A
C69          O70   1.269       .  A
C69        C4299   1.500       .  S
O70         Cr86   2.021       .  S
O71         Cr86   1.984       .  S
O71          C72   1.262       .  A
C72          O73   1.262       .  A
C72        C4282   1.486       .  S
O73         Cr87   1.994       .  S
O74         Cr87   1.991       .  S
O74          C75   1.266       .  A
C75        C4310   1.483       .  S
O76         Cr85   1.980       .  S
O76          C84   1.260       .  A
O77         Cr85   2.010       .  S
O77          C78   1.264       .  A
C78          O79   1.255       .  A
O79         Cr86   1.966       .  S
O80         Cr86   2.010       .  S
O80          C81   1.266       .  A
C81          O82   1.259       .  A
O82         Cr87   1.976       .  S
O83         Cr87   1.991       .  S
O83          C84   1.258       .  A
Cr85         O88   1.779       .  S
Cr86         O88   1.781       .  S
Cr87         O88   1.784       .  S
O89        Cr107   1.988       .  S
O89          C97   1.263       .  A
O90        Cr107   2.006       .  S
O90          C91   1.262       .  A
C91          O92   1.262       .  A
C91        C4240   1.472       .  S
O92        Cr108   1.984       .  S
O93        Cr108   2.009       .  S
O93          C94   1.265       .  A
C94          O95   1.263       .  A
C94        C4268   1.474       .  S
O95        Cr109   1.987       .  S
O96        Cr109   2.000       .  S
O96          C97   1.265       .  A
C97        C4254   1.485       .  S
O98        Cr107   1.998       .  S
O98         C106   1.262       .  A
O99        Cr107   1.957       .  S
O99         C100   1.256       .  A
C100        O101   1.266       .  A
C100        C128   1.463       .  S
O101       Cr108   2.016       .  S
O102       Cr108   1.980       .  S
O102        C103   1.261       .  A
C103        O104   1.262       .  A
C103        C147   1.464       .  S
O104       Cr109   2.001       .  S
O105       Cr109   1.972       .  S
O105        C106   1.259       .  A
C106        C172   1.458       .  S
Cr107       O110   1.781       .  S
Cr108       O110   1.778       .  S
Cr109       O110   1.776       .  S
O111       Cr129   2.019       .  S
O111        C119   1.268       .  A
O112       Cr129   1.968       .  S
O112        C113   1.259       .  A
C113        O114   1.269       .  A
C113       C4226   1.480       .  S
O114       Cr130   2.023       .  S
O115       Cr130   1.971       .  S
O115        C116   1.261       .  A
C116        O117   1.267       .  A
C116       C4212   1.474       .  S
O117       Cr131   2.008       .  S
O118       Cr131   1.965       .  S
O118        C119   1.259       .  A
C119       C4198   1.476       .  S
O120       Cr129   1.959       .  S
O120        C128   1.256       .  A
O121       Cr129   2.018       .  S
O121        C122   1.266       .  A
C122        O123   1.255       .  A
C122        C169   1.462       .  S
O123       Cr130   1.954       .  S
O124       Cr130   2.014       .  S
O124        C125   1.266       .  A
C125        O126   1.256       .  A
C125        C150   1.461       .  S
O126       Cr131   1.957       .  S
O127       Cr131   2.014       .  S
O127        C128   1.265       .  A
Cr129       O132   1.771       .  S
Cr130       O132   1.774       .  S
Cr131       O132   1.770       .  S
O133       Cr151   1.976       .  S
O133        C141   1.260       .  A
O134       Cr151   2.005       .  S
O134        C135   1.265       .  A
C135        O136   1.266       .  A
C135       C4156   1.480       .  S
O136       Cr152   1.993       .  S
O137       Cr152   2.011       .  S
O137        C138   1.268       .  A
C138        O139   1.261       .  A
C138       C4184   1.494       .  S
O139       Cr153   1.978       .  S
O140       Cr153   1.998       .  S
O140        C141   1.265       .  A
C141       C4170   1.474       .  S
O142       Cr151   2.011       .  S
O142        C150   1.263       .  A
O143       Cr151   1.970       .  S
O143        C144   1.258       .  A
C144        O145   1.262       .  A
C144        C166   1.458       .  S
O145       Cr152   2.000       .  S
O146       Cr152   1.981       .  S
O146        C147   1.259       .  A
C147        O148   1.261       .  A
O148       Cr153   1.997       .  S
O149       Cr153   1.958       .  S
O149        C150   1.254       .  A
Cr151       O154   1.786       .  S
Cr152       O154   1.781       .  S
Cr153       O154   1.778       .  S
O155       Cr173   1.985       .  S
O155        C163   1.263       .  A
O156       Cr173   1.987       .  S
O156        C157   1.263       .  A
C157        O158   1.263       .  A
C157       C4117   1.471       .  S
O158       Cr174   1.982       .  S
O159       Cr174   2.006       .  S
O159        C160   1.262       .  A
C160        O161   1.262       .  A
C160       C4142   1.472       .  S
O161       Cr175   1.982       .  S
O162       Cr175   2.009       .  S
O162        C163   1.268       .  A
C163       C4128   1.498       .  S
O164       Cr173   1.989       .  S
O164        C172   1.259       .  A
O165       Cr173   1.975       .  S
O165        C166   1.258       .  A
C166        O167   1.261       .  A
O167       Cr174   1.996       .  S
O168       Cr174   1.957       .  S
O168        C169   1.257       .  A
C169        O170   1.265       .  A
O170       Cr175   2.015       .  S
O171       Cr175   1.980       .  S
O171        C172   1.261       .  A
Cr173       O176   1.778       .  S
Cr174       O176   1.782       .  S
Cr175       O176   1.778       .  S
O177       Cr195   2.003       .  S
O177        C185   1.263       .  A
O178       Cr195   1.973       .  S
O178        C179   1.264       .  A
C179        O180   1.269       .  A
C179       C4086   1.486       .  S
O180       Cr196   2.014       .  S
O181       Cr196   1.984       .  S
O181        C182   1.263       .  A
C182        O183   1.267       .  A
C182       C4075   1.484       .  S
O183       Cr197   2.003       .  S
O184       Cr197   1.983       .  S
O184        C185   1.262       .  A
C185       C4100   1.492       .  S
O186       Cr195   1.962       .  S
O186        C194   1.257       .  A
O187       Cr195   1.992       .  S
O187        C188   1.259       .  A
C188        O189   1.259       .  A
C188        C210   1.458       .  S
O189       Cr196   1.981       .  S
O190       Cr196   2.009       .  S
O190        C191   1.264       .  A
C191        O192   1.257       .  A
C191        C232   1.463       .  S
O192       Cr197   1.964       .  S
O193       Cr197   2.010       .  S
O193        C194   1.264       .  A
C194        C254   1.462       .  S
Cr195       O198   1.773       .  S
Cr196       O198   1.781       .  S
Cr197       O198   1.775       .  S
O199       Cr217   2.013       .  S
O199        C207   1.265       .  A
O200       Cr217   1.976       .  S
O200        C201   1.263       .  A
C201        O202   1.265       .  A
C201       C4047   1.472       .  S
O202       Cr218   2.011       .  S
O203       Cr218   1.983       .  S
O203        C204   1.263       .  A
C204        O205   1.269       .  A
C204       C4030   1.479       .  S
O205       Cr219   2.021       .  S
O206       Cr219   1.979       .  S
O206        C207   1.261       .  A
C207       C4058   1.494       .  S
O208       Cr217   1.963       .  S
O208        C216   1.257       .  A
O209       Cr217   2.001       .  S
O209        C210   1.262       .  A
C210        O211   1.260       .  A
O211       Cr218   1.975       .  S
O212       Cr218   2.009       .  S
O212        C213   1.262       .  A
C213        O214   1.256       .  A
C213        C260   1.462       .  S
O214       Cr219   1.961       .  S
O215       Cr219   2.021       .  S
O215        C216   1.268       .  A
C216        C235   1.469       .  S
Cr217       O220   1.775       .  S
Cr218       O220   1.782       .  S
Cr219       O220   1.773       .  S
O221       Cr239   1.974       .  S
O221        C229   1.260       .  A
O222       Cr239   2.004       .  S
O222        C223   1.264       .  A
C223        O224   1.263       .  A
C223       C3988   1.481       .  S
O224       Cr240   1.984       .  S
O225       Cr240   2.015       .  S
O225        C226   1.266       .  A
C226        O227   1.262       .  A
C226       C4019   1.477       .  S
O227       Cr241   1.981       .  S
O228       Cr241   2.010       .  S
O228        C229   1.265       .  A
C229       C4002   1.468       .  S
O230       Cr239   1.997       .  S
O230        C238   1.262       .  A
O231       Cr239   1.964       .  S
O231        C232   1.257       .  A
C232        O233   1.264       .  A
O233       Cr240   2.010       .  S
O234       Cr240   1.968       .  S
O234        C235   1.259       .  A
C235        O236   1.265       .  A
O236       Cr241   2.015       .  S
O237       Cr241   1.978       .  S
O237        C238   1.260       .  A
C238        C257   1.460       .  S
Cr239       O242   1.776       .  S
Cr240       O242   1.778       .  S
Cr241       O242   1.778       .  S
O243       Cr261   1.975       .  S
O243        C251   1.260       .  A
O244       Cr261   2.015       .  S
O244        C245   1.268       .  A
C245        O246   1.261       .  A
C245       C3974   1.473       .  S
O246       Cr262   1.976       .  S
O247       Cr262   2.019       .  S
O247        C248   1.268       .  A
C248        O249   1.261       .  A
C248       C3960   1.474       .  S
O249       Cr263   1.967       .  S
O250       Cr263   2.017       .  S
O250        C251   1.268       .  A
C251       C3946   1.497       .  S
O252       Cr261   2.017       .  S
O252        C260   1.266       .  A
O253       Cr261   1.957       .  S
O253        C254   1.255       .  A
C254        O255   1.265       .  A
O255       Cr262   2.016       .  S
O256       Cr262   1.969       .  S
O256        C257   1.258       .  A
C257        O258   1.264       .  A
O258       Cr263   2.007       .  S
O259       Cr263   1.954       .  S
O259        C260   1.254       .  A
Cr261       O264   1.774       .  S
Cr262       O264   1.779       .  S
Cr263       O264   1.773       .  S
O265       Cr283   1.989       .  S
O265        C273   1.263       .  A
O266       Cr283   2.001       .  S
O266        C267   1.265       .  A
C267        O268   1.263       .  A
C267       C3918   1.469       .  S
O268       Cr284   1.979       .  S
O269       Cr284   2.000       .  S
O269        C270   1.264       .  A
C270        O271   1.263       .  A
C270       C3907   1.486       .  S
O271       Cr285   1.984       .  S
O272       Cr285   2.006       .  S
O272        C273   1.265       .  A
C273       C3935   1.498       .  S
O274       Cr283   2.011       .  S
O274        C282   1.265       .  A
O275       Cr283   1.977       .  S
O275        C276   1.260       .  A
C276        O277   1.259       .  A
C276        C342   1.455       .  S
O277       Cr284   1.989       .  S
O278       Cr284   1.972       .  S
O278        C279   1.257       .  A
C279        O280   1.263       .  A
C279        C301   1.460       .  S
O280       Cr285   2.002       .  S
O281       Cr285   1.962       .  S
O281        C282   1.256       .  A
C282        C326   1.463       .  S
Cr283       O286   1.780       .  S
Cr284       O286   1.781       .  S
Cr285       O286   1.777       .  S
O287       Cr305   1.986       .  S
O287        C295   1.261       .  A
O288       Cr305   1.998       .  S
O288        C289   1.264       .  A
C289        O290   1.264       .  A
C289       C3879   1.481       .  S
O290       Cr306   1.986       .  S
O291       Cr306   2.010       .  S
O291        C292   1.266       .  A
C292        O293   1.262       .  A
C292       C3865   1.468       .  S
O293       Cr307   1.975       .  S
O294       Cr307   2.013       .  S
O294        C295   1.264       .  A
C295       C3893   1.480       .  S
O296       Cr305   2.003       .  S
O296        C304   1.264       .  A
O297       Cr305   1.963       .  S
O297        C298   1.257       .  A
C298        O299   1.264       .  A
C298        C320   1.464       .  S
O299       Cr306   2.012       .  S
O300       Cr306   1.975       .  S
O300        C301   1.259       .  A
C301        O302   1.262       .  A
O302       Cr307   2.001       .  S
O303       Cr307   1.966       .  S
O303        C304   1.257       .  A
C304        C348   1.458       .  S
Cr305       O308   1.776       .  S
Cr306       O308   1.784       .  S
Cr307       O308   1.780       .  S
O309       Cr327   2.025       .  S
O309        C317   1.270       .  A
O310       Cr327   1.970       .  S
O310        C311   1.259       .  A
C311        O312   1.268       .  A
C311       C3834   1.478       .  S
O312       Cr328   2.021       .  S
O313       Cr328   1.979       .  S
O313        C314   1.263       .  A
C314        O315   1.267       .  A
C314       C3820   1.491       .  S
O315       Cr329   2.011       .  S
O316       Cr329   1.963       .  S
O316        C317   1.260       .  A
C317       C3848   1.494       .  S
O318       Cr327   1.963       .  S
O318        C326   1.256       .  A
O319       Cr327   2.017       .  S
O319        C320   1.267       .  A
C320        O321   1.256       .  A
O321       Cr328   1.958       .  S
O322       Cr328   2.017       .  S
O322        C323   1.266       .  A
C323        O324   1.257       .  A
C323        C345   1.462       .  S
O324       Cr329   1.957       .  S
O325       Cr329   2.010       .  S
O325        C326   1.264       .  A
Cr327       O330   1.773       .  S
Cr328       O330   1.773       .  S
Cr329       O330   1.767       .  S
O331       Cr349   1.983       .  S
O331        C339   1.263       .  A
O332       Cr349   2.013       .  S
O332        C333   1.265       .  A
C333        O334   1.263       .  A
C333       C3792   1.476       .  S
O334       Cr350   1.978       .  S
O335       Cr350   2.011       .  S
O335        C336   1.263       .  A
C336        O337   1.262       .  A
C336       C3778   1.480       .  S
O337       Cr351   1.983       .  S
O338       Cr351   2.001       .  S
O338        C339   1.266       .  A
C339       C3806   1.491       .  S
O340       Cr349   1.998       .  S
O340        C348   1.262       .  A
O341       Cr349   1.967       .  S
O341        C342   1.257       .  A
C342        O343   1.262       .  A
O343       Cr350   1.999       .  S
O344       Cr350   1.957       .  S
O344        C345   1.256       .  A
C345        O346   1.266       .  A
O346       Cr351   2.016       .  S
O347       Cr351   1.975       .  S
O347        C348   1.260       .  A
Cr349       O352   1.778       .  S
Cr350       O352   1.775       .  S
Cr351       O352   1.775       .  S
O353       Cr371   2.012       .  S
O353        C361   1.264       .  A
O354       Cr371   1.981       .  S
O354        C355   1.264       .  A
C355        O356   1.265       .  A
C355       C3764   1.471       .  S
O356       Cr372   2.009       .  S
O357       Cr372   1.987       .  S
O357        C358   1.263       .  A
C358        O359   1.266       .  A
C358       C3739   1.493       .  S
O359       Cr373   2.009       .  S
O360       Cr373   1.979       .  S
O360        C361   1.260       .  A
C361       C3750   1.473       .  S
O362       Cr371   1.971       .  S
O362        C370   1.259       .  A
O363       Cr371   2.004       .  S
O363        C364   1.263       .  A
C364        O365   1.259       .  A
C364        C408   1.463       .  S
O365       Cr372   1.977       .  S
O366       Cr372   2.011       .  S
O366        C367   1.265       .  A
C367        O368   1.255       .  A
C367        C436   1.460       .  S
O368       Cr373   1.957       .  S
O369       Cr373   2.006       .  S
O369        C370   1.265       .  A
C370        C389   1.462       .  S
Cr371       O374   1.778       .  S
Cr372       O374   1.781       .  S
Cr373       O374   1.776       .  S
O375       Cr393   2.010       .  S
O375        C383   1.264       .  A
O376       Cr393   1.986       .  S
O376        C377   1.263       .  A
C377        O378   1.265       .  A
C377       C3694   1.483       .  S
O378       Cr394   1.998       .  S
O379       Cr394   1.981       .  S
O379        C380   1.263       .  A
C380        O381   1.269       .  A
C380       C3708   1.490       .  S
O381       Cr395   2.011       .  S
O382       Cr395   1.983       .  S
O382        C383   1.261       .  A
C383       C3722   1.474       .  S
O384       Cr393   1.964       .  S
O384        C392   1.256       .  A
O385       Cr393   1.999       .  S
O385        C386   1.262       .  A
C386        O387   1.257       .  A
C386        C411   1.457       .  S
O387       Cr394   1.970       .  S
O388       Cr394   1.997       .  S
O388        C389   1.261       .  A
C389        O390   1.260       .  A
O390       Cr395   1.981       .  S
O391       Cr395   2.018       .  S
O391        C392   1.267       .  A
C392        C433   1.467       .  S
Cr393       O396   1.782       .  S
Cr394       O396   1.779       .  S
Cr395       O396   1.777       .  S
O397       Cr415   2.018       .  S
O397        C405   1.266       .  A
O398       Cr415   1.973       .  S
O398        C399   1.260       .  A
C399        O400   1.268       .  A
C399       C3683   1.494       .  S
O400       Cr416   2.011       .  S
O401       Cr416   1.984       .  S
O401        C402   1.264       .  A
C402        O403   1.266       .  A
C402       C3652   1.478       .  S
O403       Cr417   2.002       .  S
O404       Cr417   1.974       .  S
O404        C405   1.259       .  A
C405       C3666   1.475       .  S
O406       Cr415   1.950       .  S
O406        C414   1.253       .  A
O407       Cr415   2.006       .  S
O407        C408   1.264       .  A
C408        O409   1.257       .  A
O409       Cr416   1.971       .  S
O410       Cr416   2.000       .  S
O410        C411   1.263       .  A
C411        O412   1.259       .  A
O412       Cr417   1.970       .  S
O413       Cr417   2.016       .  S
O413        C414   1.266       .  A
C414        C430   1.457       .  S
Cr415       O418   1.777       .  S
Cr416       O418   1.780       .  S
Cr417       O418   1.776       .  S
O419       Cr437   1.971       .  S
O419        C427   1.263       .  A
O420       Cr437   2.016       .  S
O420        C421   1.265       .  A
C421        O422   1.262       .  A
C421       C3624   1.478       .  S
O422       Cr438   1.986       .  S
O423       Cr438   2.000       .  S
O423        C424   1.264       .  A
C424        O425   1.262       .  A
C424       C3638   1.474       .  S
O425       Cr439   1.975       .  S
O426       Cr439   2.015       .  S
O426        C427   1.266       .  A
C427       C3610   1.474       .  S
O428       Cr437   2.008       .  S
O428        C436   1.263       .  A
O429       Cr437   1.961       .  S
O429        C430   1.258       .  A
C430        O431   1.263       .  A
O431       Cr438   2.004       .  S
O432       Cr438   1.974       .  S
O432        C433   1.260       .  A
C433        O434   1.263       .  A
O434       Cr439   2.006       .  S
O435       Cr439   1.962       .  S
O435        C436   1.256       .  A
Cr437       O440   1.772       .  S
Cr438       O440   1.771       .  S
Cr439       O440   1.776       .  S
O441       Cr459   2.007       .  S
O441        C449   1.266       .  A
O442       Cr459   1.977       .  S
O442        C443   1.261       .  A
C443        O444   1.264       .  A
C443       C3568   1.484       .  S
O444       Cr460   2.005       .  S
O445       Cr460   1.975       .  S
O445        C446   1.264       .  A
C446        O447   1.268       .  A
C446       C3585   1.493       .  S
O447       Cr461   2.016       .  S
O448       Cr461   1.981       .  S
O448        C449   1.262       .  A
C449       C3596   1.475       .  S
O450       Cr459   1.960       .  S
O450        C458   1.256       .  A
O451       Cr459   2.014       .  S
O451        C452   1.265       .  A
C452        O453   1.258       .  A
C452        C524   1.470       .  S
O453       Cr460   1.970       .  S
O454       Cr460   1.994       .  S
O454        C455   1.260       .  A
C455        O456   1.259       .  A
C455        C480   1.459       .  S
O456       Cr461   1.978       .  S
O457       Cr461   2.009       .  S
O457        C458   1.264       .  A
C458        C502   1.461       .  S
Cr459       O462   1.777       .  S
Cr460       O462   1.776       .  S
Cr461       O462   1.784       .  S
O463       Cr481   2.000       .  S
O463        C471   1.266       .  A
O464       Cr481   1.984       .  S
O464        C465   1.262       .  A
C465        O466   1.267       .  A
C465       C3554   1.481       .  S
O466       Cr482   2.020       .  S
O467       Cr482   1.973       .  S
O467        C468   1.262       .  A
C468        O469   1.264       .  A
C468       C3526   1.483       .  S
O469       Cr483   2.013       .  S
O470       Cr483   1.983       .  S
O470        C471   1.264       .  A
C471       C3540   1.477       .  S
O472       Cr481   1.977       .  S
O472        C480   1.259       .  A
O473       Cr481   2.007       .  S
O473        C474   1.262       .  A
C474        O475   1.257       .  A
C474        C521   1.462       .  S
O475       Cr482   1.963       .  S
O476       Cr482   2.014       .  S
O476        C477   1.265       .  A
C477        O478   1.257       .  A
C477        C496   1.466       .  S
O478       Cr483   1.965       .  S
O479       Cr483   1.995       .  S
O479        C480   1.260       .  A
Cr481       O484   1.779       .  S
Cr482       O484   1.773       .  S
Cr483       O484   1.783       .  S
O485       Cr503   1.982       .  S
O485        C493   1.261       .  A
O486       Cr503   2.007       .  S
O486        C487   1.266       .  A
C487        O488   1.266       .  A
C487       C3484   1.489       .  S
O488       Cr504   1.990       .  S
O489       Cr504   2.016       .  S
O489        C490   1.267       .  A
C490        O491   1.261       .  A
C490       C3498   1.467       .  S
O491       Cr505   1.971       .  S
O492       Cr505   2.003       .  S
O492        C493   1.265       .  A
C493       C3512   1.489       .  S
O494       Cr503   2.010       .  S
O494        C502   1.265       .  A
O495       Cr503   1.967       .  S
O495        C496   1.257       .  A
C496        O497   1.264       .  A
O497       Cr504   2.010       .  S
O498       Cr504   1.983       .  S
O498        C499   1.260       .  A
C499        O500   1.260       .  A
C499        C518   1.462       .  S
O500       Cr505   1.996       .  S
O501       Cr505   1.960       .  S
O501        C502   1.256       .  A
Cr503       O506   1.778       .  S
Cr504       O506   1.780       .  S
Cr505       O506   1.776       .  S
O507       Cr525   1.976       .  S
O507        C515   1.261       .  A
O508       Cr525   2.026       .  S
O508        C509   1.270       .  A
C509        O510   1.261       .  A
C509       C3456   1.488       .  S
O510       Cr526   1.964       .  S
O511       Cr526   2.002       .  S
O511        C512   1.264       .  A
C512        O513   1.262       .  A
C512       C3473   1.487       .  S
O513       Cr527   1.987       .  S
O514       Cr527   2.022       .  S
O514        C515   1.271       .  A
C515       C3442   1.501       .  S
O516       Cr525   2.019       .  S
O516        C524   1.267       .  A
O517       Cr525   1.979       .  S
O517        C518   1.259       .  A
C518        O519   1.260       .  A
O519       Cr526   1.998       .  S
O520       Cr526   1.954       .  S
O520        C521   1.255       .  A
C521        O522   1.268       .  A
O522       Cr527   2.019       .  S
O523       Cr527   1.965       .  S
O523        C524   1.256       .  A
Cr525       O528   1.777       .  S
Cr526       O528   1.772       .  S
Cr527       O528   1.778       .  S
O529       Cr547   2.017       .  S
O529        C537   1.268       .  A
O530       Cr547   1.976       .  S
O530        C531   1.261       .  A
C531        O532   1.266       .  A
C531       C3431   1.470       .  S
O532       Cr548   2.012       .  S
O533       Cr548   1.978       .  S
O533        C534   1.260       .  A
C534        O535   1.266       .  A
C534       C3414   1.490       .  S
O535       Cr549   2.007       .  S
O536       Cr549   1.971       .  S
O536        C537   1.260       .  A
C537       C3400   1.470       .  S
O538       Cr547   1.971       .  S
O538        C546   1.258       .  A
O539       Cr547   2.015       .  S
O539        C540   1.265       .  A
C540        O541   1.256       .  A
C540        C587   1.461       .  S
O541       Cr548   1.956       .  S
O542       Cr548   2.017       .  S
O542        C543   1.267       .  A
C543        O544   1.256       .  A
C543        C606   1.462       .  S
O544       Cr549   1.957       .  S
O545       Cr549   2.003       .  S
O545        C546   1.263       .  A
C546        C562   1.460       .  S
Cr547       O550   1.778       .  S
Cr548       O550   1.773       .  S
Cr549       O550   1.773       .  S
O551       Cr569   2.008       .  S
O551        C559   1.265       .  A
O552       Cr569   1.971       .  S
O552        C553   1.261       .  A
C553        O554   1.268       .  A
C553       C3358   1.487       .  S
O554       Cr570   2.015       .  S
O555       Cr570   1.983       .  S
O555        C556   1.264       .  A
C556        O557   1.266       .  A
C556       C3386   1.482       .  S
O557       Cr571   2.004       .  S
O558       Cr571   1.979       .  S
O558        C559   1.260       .  A
C559       C3372   1.474       .  S
O560       Cr569   1.965       .  S
O560        C568   1.256       .  A
O561       Cr569   1.994       .  S
O561        C562   1.260       .  A
C562        O563   1.260       .  A
O563       Cr570   1.981       .  S
O564       Cr570   2.014       .  S
O564        C565   1.265       .  A
C565        O566   1.258       .  A
C565        C612   1.468       .  S
O566       Cr571   1.967       .  S
O567       Cr571   2.010       .  S
O567        C568   1.263       .  A
C568        C590   1.466       .  S
Cr569       O572   1.777       .  S
Cr570       O572   1.784       .  S
Cr571       O572   1.781       .  S
O573       Cr591   1.975       .  S
O573        C581   1.260       .  A
O574       Cr591   2.004       .  S
O574        C575   1.267       .  A
C575        O576   1.262       .  A
C575       C3316   1.474       .  S
O576       Cr592   1.976       .  S
O577       Cr592   2.007       .  S
O577        C578   1.266       .  A
C578        O579   1.262       .  A
C578       C3344   1.488       .  S
O579       Cr593   1.978       .  S
O580       Cr593   2.020       .  S
O580        C581   1.267       .  A
C581       C3333   1.475       .  S
O582       Cr591   2.015       .  S
O582        C590   1.265       .  A
O583       Cr591   1.973       .  S
O583        C584   1.259       .  A
C584        O585   1.261       .  A
C584        C609   1.455       .  S
O585       Cr592   1.996       .  S
O586       Cr592   1.956       .  S
O586        C587   1.255       .  A
C587        O588   1.265       .  A
O588       Cr593   2.012       .  S
O589       Cr593   1.963       .  S
O589        C590   1.256       .  A
Cr591       O594   1.774       .  S
Cr592       O594   1.778       .  S
Cr593       O594   1.777       .  S
O595       Cr613   1.977       .  S
O595        C603   1.262       .  A
O596       Cr613   2.020       .  S
O596        C597   1.270       .  A
C597        O598   1.262       .  A
C597       C3288   1.499       .  S
O598       Cr614   1.982       .  S
O599       Cr614   2.006       .  S
O599        C600   1.266       .  A
C600        O601   1.261       .  A
C600       C3274   1.467       .  S
O601       Cr615   1.971       .  S
O602       Cr615   2.005       .  S
O602        C603   1.265       .  A
C603       C3302   1.481       .  S
O604       Cr613   2.019       .  S
O604        C612   1.266       .  A
O605       Cr613   1.963       .  S
O605        C606   1.257       .  A
C606        O607   1.263       .  A
O607       Cr614   2.009       .  S
O608       Cr614   1.975       .  S
O608        C609   1.259       .  A
C609        O610   1.260       .  A
O610       Cr615   1.992       .  S
O611       Cr615   1.962       .  S
O611        C612   1.255       .  A
Cr613       O616   1.776       .  S
Cr614       O616   1.779       .  S
Cr615       O616   1.779       .  S
O617       Cr635   1.963       .  S
O617        C625   1.258       .  A
O618       Cr635   2.029       .  S
O618        C619   1.271       .  A
C619        O620   1.258       .  A
C619       C3246   1.473       .  S
O620       Cr636   1.954       .  S
O621       Cr636   1.990       .  S
O621        C622   1.260       .  A
C622        O623   1.257       .  A
C622       C3218   1.467       .  S
O623       Cr637   1.981       .  S
O624       Cr637   2.011       .  S
O624        C625   1.267       .  A
C625       C3470   1.494       .  S
O626       Cr635   2.014       .  S
O626        C634   1.268       .  A
O627       Cr635   1.983       .  S
O627        C628   1.257       .  A
C628        O629   1.263       .  A
C628       C3232   1.472       .  S
O629       Cr636   2.008       .  S
O630       Cr636   1.945       .  S
O630        C631   1.261       .  A
C631        O632   1.270       .  A
C631       C3263   1.484       .  S
O632       Cr637   2.025       .  S
O633       Cr637   1.961       .  S
O633        C634   1.255       .  A
C634       C3277   1.492       .  S
Cr635       O638   1.776       .  S
Cr636       O638   1.755       .  S
Cr637       O638   1.780       .  S
O639       Cr657   2.003       .  S
O639        C647   1.265       .  A
O640       Cr657   1.985       .  S
O640        C641   1.259       .  A
C641        O642   1.262       .  A
C641       C3190   1.481       .  S
O642       Cr658   2.000       .  S
O643       Cr658   1.973       .  S
O643        C644   1.261       .  A
C644        O645   1.270       .  A
C644       C3204   1.472       .  S
O645       Cr659   2.022       .  S
O646       Cr659   1.962       .  S
O646        C647   1.255       .  A
C647       C3641   1.475       .  S
O648       Cr657   1.957       .  S
O648        C656   1.257       .  A
O649       Cr657   2.016       .  S
O649        C650   1.269       .  A
C650        O651   1.263       .  A
C650       C3249   1.482       .  S
O651       Cr658   1.973       .  S
O652       Cr658   2.004       .  S
O652        C653   1.262       .  A
C653        O654   1.255       .  A
C653       C3179   1.468       .  S
O654       Cr659   1.980       .  S
O655       Cr659   2.011       .  S
O655        C656   1.266       .  A
C656       C3459   1.490       .  S
Cr657       O660   1.777       .  S
Cr658       O660   1.763       .  S
Cr659       O660   1.779       .  S
O661       Cr679   2.010       .  S
O661        C669   1.267       .  A
O662       Cr679   1.974       .  S
O662        C663   1.257       .  A
C663        O664   1.265       .  A
C663       C3235   1.467       .  S
O664       Cr680   2.013       .  S
O665       Cr680   1.969       .  S
O665        C666   1.259       .  A
C666        O667   1.268       .  A
C666       C3162   1.464       .  S
O667       Cr681   2.012       .  S
O668       Cr681   1.963       .  S
O668        C669   1.255       .  A
C669       C3305   1.480       .  S
O670       Cr679   1.958       .  S
O670        C678   1.258       .  A
O671       Cr679   2.019       .  S
O671        C672   1.268       .  A
C672        O673   1.259       .  A
C672       C3134   1.468       .  S
O673       Cr680   1.972       .  S
O674       Cr680   2.011       .  S
O674        C675   1.264       .  A
C675        O676   1.257       .  A
C675       C3148   1.471       .  S
O676       Cr681   1.980       .  S
O677       Cr681   2.008       .  S
O677        C678   1.266       .  A
C678       C4285   1.484       .  S
Cr679       O682   1.774       .  S
Cr680       O682   1.761       .  S
Cr681       O682   1.774       .  S
O683       Cr701   2.016       .  S
O683        C691   1.267       .  A
O684       Cr701   1.995       .  S
O684        C685   1.261       .  A
C685        O686   1.261       .  A
C685       C3106   1.486       .  S
O686       Cr702   1.985       .  S
O687       Cr702   1.963       .  S
O687        C688   1.259       .  A
C688        O689   1.272       .  A
C688       C3193   1.466       .  S
O689       Cr703   2.028       .  S
O690       Cr703   1.966       .  S
O690        C691   1.256       .  A
C691       C3627   1.476       .  S
O692       Cr701   1.965       .  S
O692        C700   1.257       .  A
O693       Cr701   2.026       .  S
O693        C694   1.271       .  A
C694        O695   1.262       .  A
C694       C3120   1.478       .  S
O695       Cr702   1.961       .  S
O696       Cr702   1.999       .  S
O696        C697   1.261       .  A
C697        O698   1.258       .  A
C697       C3137   1.473       .  S
O698       Cr703   1.988       .  S
O699       Cr703   2.014       .  S
O699        C700   1.269       .  A
C700       C4313   1.499       .  S
Cr701       O704   1.778       .  S
Cr702       O704   1.752       .  S
Cr703       O704   1.776       .  S
O705       Cr723   1.965       .  S
O705        C713   1.255       .  A
O706       Cr723   2.018       .  S
O706        C707   1.269       .  A
C707        O708   1.262       .  A
C707       C3078   1.466       .  S
O708       Cr724   1.970       .  S
O709       Cr724   2.004       .  S
O709        C710   1.266       .  A
C710        O711   1.257       .  A
C710       C3064   1.486       .  S
O711       Cr725   1.973       .  S
O712       Cr725   2.011       .  S
O712        C713   1.266       .  A
C713       C3963   1.473       .  S
O714       Cr723   2.015       .  S
O714        C722   1.268       .  A
O715       Cr723   1.991       .  S
O715        C716   1.260       .  A
C716        O717   1.263       .  A
C716       C3092   1.481       .  S
O717       Cr724   2.004       .  S
O718       Cr724   1.974       .  S
O718        C719   1.261       .  A
C719        O720   1.267       .  A
C719       C3050   1.464       .  S
O720       Cr725   2.012       .  S
O721       Cr725   1.951       .  S
O721        C722   1.253       .  A
C722       C3036   1.486       .  S
Cr723       O726   1.778       .  S
Cr724       O726   1.759       .  S
Cr725       O726   1.780       .  S
O727       Cr745   1.956       .  S
O727        C735   1.258       .  A
O728       Cr745   2.030       .  S
O728        C729   1.269       .  A
C729        O730   1.256       .  A
C729       C3095   1.473       .  S
O730       Cr746   1.967       .  S
O731       Cr746   1.999       .  S
O731        C732   1.262       .  A
C732        O733   1.257       .  A
C732       C3022   1.471       .  S
O733       Cr747   1.981       .  S
O734       Cr747   2.024       .  S
O734        C735   1.273       .  A
C735       C3008   1.490       .  S
O736       Cr745   2.010       .  S
O736        C744   1.265   1_556  A
O737       Cr745   1.976   1_554  S
O737        C738   1.256       .  A
C738        O739   1.265   1_554  A
C738       C3151   1.468       .  S
O739       Cr746   2.011       .  S
O740       Cr746   1.952   1_554  S
O740        C741   1.259       .  A
C741        O742   1.271   1_554  A
C741       C3123   1.482       .  S
O742       Cr747   2.027       .  S
O743       Cr747   1.977   1_554  S
O743        C744   1.257       .  A
C744       C4296   1.497       .  S
Cr745       O748   1.778       .  S
Cr746       O748   1.759       .  S
Cr747       O748   1.778       .  S
O749       Cr767   1.968       .  S
O749        C757   1.256       .  A
O750       Cr767   2.030       .  S
O750        C751   1.274       .  A
C751        O752   1.261       .  A
C751       C2994   1.485       .  S
O752       Cr768   1.946       .  S
O753       Cr768   1.997       .  S
O753        C754   1.259       .  A
C754        O755   1.258       .  A
C754       C3081   1.484       .  S
O755       Cr769   1.988       .  S
O756       Cr769   2.017       .  S
O756        C757   1.267       .  A
C757       C3977   1.490       .  S
O758       Cr767   2.023   1_554  S
O758        C766   1.272       .  A
O759       Cr767   1.989   1_554  S
O759        C760   1.257       .  A
C760        O761   1.256   1_554  A
C760       C3260   1.465       .  S
O761       Cr768   1.980       .  S
O762       Cr768   1.957   1_554  S
O762        C763   1.256       .  A
C763        O764   1.273   1_554  A
C763       C3165   1.463       .  S
O764       Cr769   2.030       .  S
O765       Cr769   1.959   1_554  S
O765        C766   1.255       .  A
C766       C3291   1.499       .  S
Cr767       O770   1.777       .  S
Cr768       O770   1.756       .  S
Cr769       O770   1.776       .  S
O771       Cr789   1.964       .  S
O771        C779   1.257       .  A
O772       Cr789   2.026       .  S
O772        C773   1.270       .  A
C773        O774   1.257       .  A
C773       C3067   1.466       .  S
O774       Cr790   1.950       .  S
O775       Cr790   1.998       .  S
O775        C776   1.263       .  A
C776        O777   1.255       .  A
C776       C2997   1.464       .  S
O777       Cr791   1.968       .  S
O778       Cr791   2.014       .  S
O778        C779   1.269       .  A
C779       C3949   1.482       .  S
O780       Cr789   2.010       .  S
O780        C788   1.267       .  A
O781       Cr789   1.983       .  S
O781        C782   1.257       .  A
C782        O783   1.262       .  A
C782       C2966   1.475       .  S
O783       Cr790   1.994       .  S
O784       Cr790   1.956       .  S
O784        C785   1.258       .  A
C785        O786   1.271       .  A
C785       C2980   1.494       .  S
O786       Cr791   2.032       .  S
O787       Cr791   1.943       .  S
O787        C788   1.252       .  A
C788       C4114   1.487       .  S
Cr789       O792   1.781       .  S
Cr790       O792   1.756       .  S
Cr791       O792   1.779       .  S
O793       Cr811   1.976   1_554  S
O793        C801   1.256       .  A
O794       Cr811   2.021       .  S
O794        C795   1.270   1_556  A
C795        O796   1.258       .  A
C795       C3221   1.485       .  S
O796       Cr812   1.947   1_554  S
O797       Cr812   2.004       .  S
O797        C798   1.263   1_556  A
C798        O799   1.257       .  A
C798       C3176   1.469       .  S
O799       Cr813   1.979   1_554  S
O800       Cr813   2.009       .  S
O800        C801   1.265   1_556  A
C801       C3445   1.485       .  S
O802       Cr811   2.017       .  S
O802        C810   1.271       .  A
O803       Cr811   1.985       .  S
O803        C804   1.258       .  A
C804        O805   1.263       .  A
C804       C2983   1.476       .  S
O805       Cr812   1.999       .  S
O806       Cr812   1.961       .  S
O806        C807   1.257       .  A
C807        O808   1.268       .  A
C807       C2952   1.465       .  S
O808       Cr813   2.024       .  S
O809       Cr813   1.965       .  S
O809        C810   1.260       .  A
C810       C4131   1.489       .  S
Cr811       O814   1.781       .  S
Cr812       O814   1.758       .  S
Cr813       O814   1.775       .  S
O815       Cr833   2.021       .  S
O815        C823   1.268       .  A
O816       Cr833   1.970       .  S
O816        C817   1.258       .  A
C817        O818   1.268       .  A
C817       C2938   1.479       .  S
O818       Cr834   2.007       .  S
O819       Cr834   1.968       .  S
O819        C820   1.261       .  A
C820        O821   1.269       .  A
C820       C2924   1.473       .  S
O821       Cr835   2.020       .  S
O822       Cr835   1.961       .  S
O822        C823   1.255       .  A
C823       C3781   1.484       .  S
O824       Cr833   1.964       .  S
O824        C832   1.256       .  A
O825       Cr833   2.023       .  S
O825        C826   1.268       .  A
C826        O827   1.260       .  A
C826       C2955   1.470       .  S
O827       Cr834   1.973       .  S
O828       Cr834   2.002       .  S
O828        C829   1.264       .  A
C829        O830   1.257       .  A
C829       C2969   1.471       .  S
O830       Cr835   1.980       .  S
O831       Cr835   2.015       .  S
O831        C832   1.267       .  A
C832       C4145   1.476       .  S
Cr833       O836   1.781       .  S
Cr834       O836   1.757       .  S
Cr835       O836   1.777       .  S
O837       Cr855   2.012   1_554  S
O837        C845   1.266       .  A
O838       Cr855   1.999   1_554  S
O838        C839   1.262       .  A
C839        O840   1.262   1_554  A
C839       C3207   1.486       .  S
O840       Cr856   1.987       .  S
O841       Cr856   1.950   1_554  S
O841        C842   1.257       .  A
C842        O843   1.270   1_554  A
C842       C3109   1.475       .  S
O843       Cr857   2.026       .  S
O844       Cr857   1.954   1_554  S
O844        C845   1.255       .  A
C845       C3613   1.477       .  S
O846       Cr855   1.972       .  S
O846        C854   1.259       .  A
O847       Cr855   2.020       .  S
O847        C848   1.268       .  A
C848        O849   1.258       .  A
C848       C2941   1.462       .  S
O849       Cr856   1.955       .  S
O850       Cr856   1.994       .  S
O850        C851   1.263       .  A
C851        O852   1.257       .  A
C851       C2910   1.473       .  S
O852       Cr857   1.976       .  S
O853       Cr857   2.014       .  S
O853        C854   1.267       .  A
C854       C3795   1.484       .  S
Cr855       O858   1.783       .  S
Cr856       O858   1.756       .  S
Cr857       O858   1.786       .  S
O859       Cr877   1.962       .  S
O859        C867   1.256       .  A
O860       Cr877   2.029       .  S
O860        C861   1.273       .  A
C861        O862   1.260       .  A
C861       C2927   1.471       .  S
O862       Cr878   1.961       .  S
O863       Cr878   1.991       .  S
O863        C864   1.262       .  A
C864        O865   1.257       .  A
C864       C2913   1.469       .  S
O865       Cr879   1.979       .  S
O866       Cr879   2.011       .  S
O866        C867   1.267       .  A
C867       C3809   1.484       .  S
O868       Cr877   2.013       .  S
O868        C876   1.268       .  A
O869       Cr877   1.987       .  S
O869        C870   1.258       .  A
C870        O871   1.260       .  A
C870       C3053   1.470       .  S
O871       Cr878   1.994       .  S
O872       Cr878   1.957       .  S
O872        C873   1.260       .  A
C873        O874   1.271       .  A
C873       C3025   1.486       .  S
O874       Cr879   2.028       .  S
O875       Cr879   1.955       .  S
O875        C876   1.256       .  A
C876       C2899   1.480       .  S
Cr877       O880   1.770       .  S
Cr878       O880   1.758       .  S
Cr879       O880   1.778       .  S
O881       Cr899   2.009       .  S
O881        C889   1.266       .  A
O882       Cr899   1.993       .  S
O882        C883   1.258       .  A
C883        O884   1.259       .  A
C883       C2882   1.476       .  S
O884       Cr900   1.989       .  S
O885       Cr900   1.951       .  S
O885        C886   1.260       .  A
C886        O887   1.274       .  A
C886       C2868   1.489       .  S
O887       Cr901   2.036       .  S
O888       Cr901   1.961       .  S
O888        C889   1.256       .  A
C889       C4201   1.468       .  S
O890       Cr899   1.962   1_545  S
O890        C898   1.256       .  A
O891       Cr899   2.023       .  S
O891        C892   1.272   1_565  A
C892        O893   1.259       .  A
C892       C2854   1.467       .  S
O893       Cr900   1.950   1_545  S
O894       Cr900   1.993       .  S
O894        C895   1.260   1_565  A
C895        O896   1.258       .  A
C895       C2843   1.480       .  S
O896       Cr901   1.993   1_545  S
O897       Cr901   2.012       .  S
O897        C898   1.268   1_565  A
C898       C3991   1.481       .  S
Cr899       O902   1.778       .  S
Cr900       O902   1.753       .  S
Cr901       O902   1.775       .  S
O903       Cr921   2.016       .  S
O903        C911   1.269       .  A
O904       Cr921   1.991       .  S
O904        C905   1.259       .  A
C905        O906   1.261       .  A
C905       C2826   1.477       .  S
O906       Cr922   2.001       .  S
O907       Cr922   1.952       .  S
O907        C908   1.258       .  A
C908        O909   1.275       .  A
C908       C2885   1.493       .  S
O909       Cr923   2.036       .  S
O910       Cr923   1.949       .  S
O910        C911   1.253       .  A
C911       C4215   1.491       .  S
O912       Cr921   1.967       .  S
O912        C920   1.257       .  A
O913       Cr921   2.027       .  S
O913        C914   1.272       .  A
C914        O915   1.259       .  A
C914       C2798   1.463       .  S
O915       Cr922   1.955       .  S
O916       Cr922   1.996       .  S
O916        C917   1.262       .  A
C917        O918   1.254       .  A
C917       C2812   1.476       .  S
O918       Cr923   1.976       .  S
O919       Cr923   2.015       .  S
O919        C920   1.270       .  A
C920       C3487   1.488       .  S
Cr921       O924   1.775       .  S
Cr922       O924   1.757       .  S
Cr923       O924   1.775       .  S
O925       Cr943   2.012       .  S
O925        C933   1.267       .  A
O926       Cr943   1.974       .  S
O926        C927   1.258       .  A
C927        O928   1.264       .  A
C927       C2871   1.470       .  S
O928       Cr944   2.001       .  S
O929       Cr944   1.973       .  S
O929        C930   1.258       .  A
C930        O931   1.268       .  A
C930       C2829   1.471       .  S
O931       Cr945   2.020       .  S
O932       Cr945   1.969       .  S
O932        C933   1.256       .  A
C933       C4229   1.473       .  S
O934       Cr943   1.965       .  S
O934        C942   1.258       .  A
O935       Cr943   2.014       .  S
O935        C936   1.267       .  A
C936        O937   1.261       .  A
C936       C2770   1.473       .  S
O937       Cr944   1.976       .  S
O938       Cr944   2.005       .  S
O938        C939   1.264       .  A
C939        O940   1.258       .  A
C939       C2784   1.469       .  S
O940       Cr945   1.982       .  S
O941       Cr945   2.010       .  S
O941        C942   1.267       .  A
C942       C3823   1.486       .  S
Cr943       O946   1.779       .  S
Cr944       O946   1.757       .  S
Cr945       O946   1.778       .  S
O947       Cr965   1.961       .  S
O947        C955   1.256       .  A
O948       Cr965   2.022       .  S
O948        C949   1.268       .  A
C949        O950   1.258       .  A
C949       C2728   1.468       .  S
O950       Cr966   1.967       .  S
O951       Cr966   1.988       .  S
O951        C952   1.261       .  A
C952        O953   1.260       .  A
C952       C2815   1.475       .  S
O953       Cr967   1.987       .  S
O954       Cr967   2.012       .  S
O954        C955   1.268       .  A
C955       C3515   1.488       .  S
O956       Cr965   2.010   1_545  S
O956        C964   1.267       .  A
O957       Cr965   1.976   1_545  S
O957        C958   1.257       .  A
C958        O959   1.262   1_545  A
C958       C2742   1.464       .  S
O959       Cr966   2.002       .  S
O960       Cr966   1.964   1_545  S
O960        C961   1.261       .  A
C961        O962   1.269   1_545  A
C961       C2756   1.471       .  S
O962       Cr967   2.021       .  S
O963       Cr967   1.966   1_545  S
O963        C964   1.258       .  A
C964       C3361   1.487       .  S
Cr965       O968   1.774       .  S
Cr966       O968   1.759       .  S
Cr967       O968   1.778       .  S
O969       Cr987   2.011       .  S
O969        C977   1.267       .  A
O970       Cr987   1.985       .  S
O970        C971   1.258       .  A
C971        O972   1.262       .  A
C971       C2700   1.480       .  S
O972       Cr988   1.989       .  S
O973       Cr988   1.969       .  S
O973        C974   1.260       .  A
C974        O975   1.272       .  A
C974       C2686   1.483       .  S
O975       Cr989   2.027       .  S
O976       Cr989   1.957       .  S
O976        C977   1.257       .  A
C977       C3697   1.492       .  S
O978       Cr987   1.963       .  S
O978        C986   1.254       .  A
O979       Cr987   2.021       .  S
O979        C980   1.271       .  A
C980        O981   1.262       .  A
C980       C2787   1.479       .  S
O981       Cr988   1.972       .  S
O982       Cr988   1.993       .  S
O982        C983   1.263       .  A
C983        O984   1.256       .  A
C983       C2714   1.476       .  S
O984       Cr989   1.978       .  S
O985       Cr989   2.012       .  S
O985        C986   1.267       .  A
C986       C3837   1.472       .  S
Cr987       O990   1.779       .  S
Cr988       O990   1.754       .  S
Cr989       O990   1.777       .  S
O991      Cr1009   1.969   1_545  S
O991        C999   1.257       .  A
O992      Cr1009   2.029       .  S
O992        C993   1.273   1_565  A
C993        O994   1.261       .  A
C993       C2672   1.475       .  S
O994      Cr1010   1.960   1_545  S
O995      Cr1010   1.989       .  S
O995        C996   1.262   1_565  A
C996        O997   1.258       .  A
C996       C2658   1.488       .  S
O997      Cr1011   1.988   1_545  S
O998      Cr1011   2.006   1_545  S
O998        C999   1.265       .  A
C999       C2644   1.469       .  S
O1000     Cr1009   2.017       .  S
O1000      C1008   1.269       .  A
O1001     Cr1009   1.997       .  S
O1001      C1002   1.259       .  A
C1002      O1003   1.258       .  A
C1002      C2717   1.478       .  S
O1003     Cr1010   1.983       .  S
O1004     Cr1010   1.962       .  S
O1004      C1005   1.259       .  A
C1005      O1006   1.271       .  A
C1005      C2773   1.472       .  S
O1006     Cr1011   2.029       .  S
O1007     Cr1011   1.948       .  S
O1007      C1008   1.257       .  A
C1008      C3851   1.492       .  S
Cr1009     O1012   1.778       .  S
Cr1010     O1012   1.752       .  S
Cr1011     O1012   1.776       .  S
O1013     Cr1031   1.972       .  S
O1013      C1021   1.256       .  A
O1014     Cr1031   2.026       .  S
O1014      C1015   1.270       .  A
C1015      O1016   1.258       .  A
C1015      C2630   1.473       .  S
O1016     Cr1032   1.959       .  S
O1017     Cr1032   1.987       .  S
O1017      C1018   1.263       .  A
C1018      O1019   1.260       .  A
C1018      C2703   1.483       .  S
O1019     Cr1033   1.990       .  S
O1020     Cr1033   2.011       .  S
O1020      C1021   1.264       .  A
C1021      C3725   1.475       .  S
O1022     Cr1031   2.020       .  S
O1022      C1030   1.269       .  A
O1023     Cr1031   1.989       .  S
O1023      C1024   1.260       .  A
C1024      O1025   1.265       .  A
C1024      C2731   1.483       .  S
O1025     Cr1032   2.005       .  S
O1026     Cr1032   1.969       .  S
O1026      C1027   1.263       .  A
C1027      O1028   1.268       .  A
C1027      C2801   1.467       .  S
O1028     Cr1033   2.017       .  S
O1029     Cr1033   1.956       .  S
O1029      C1030   1.255       .  A
C1030      C3501   1.477       .  S
Cr1031     O1034   1.781       .  S
Cr1032     O1034   1.755       .  S
Cr1033     O1034   1.784       .  S
O1035     Cr1053   2.025       .  S
O1035      C1043   1.273       .  A
O1036     Cr1053   1.983       .  S
O1036      C1037   1.256       .  A
C1037      O1038   1.262       .  A
C1037      C2689   1.471       .  S
O1038     Cr1054   2.005       .  S
O1039     Cr1054   1.962       .  S
O1039      C1040   1.261       .  A
C1040      O1041   1.267       .  A
C1040      C2633   1.472       .  S
O1041     Cr1055   2.015       .  S
O1042     Cr1055   1.957       .  S
O1042      C1043   1.256       .  A
C1043      C3711   1.495       .  S
O1044     Cr1053   1.975   1_545  S
O1044      C1052   1.257       .  A
O1045     Cr1053   2.032       .  S
O1045      C1046   1.273   1_565  A
C1046      O1047   1.257       .  A
C1046      C2616   1.486       .  S
O1047     Cr1054   1.946   1_545  S
O1048     Cr1054   1.999       .  S
O1048      C1049   1.265   1_565  A
C1049      O1050   1.259       .  A
C1049      C2602   1.476       .  S
O1050     Cr1055   1.983   1_545  S
O1051     Cr1055   2.005       .  S
O1051      C1052   1.264   1_565  A
C1052      C4352   1.484       .  S
Cr1053     O1056   1.775       .  S
Cr1054     O1056   1.760       .  S
Cr1055     O1056   1.775       .  S
O1057     Cr1075   1.963       .  S
O1057      C1065   1.256       .  A
O1058     Cr1075   2.023       .  S
O1058      C1059   1.269       .  A
C1059      O1060   1.260       .  A
C1059      C2574   1.473       .  S
O1060     Cr1076   1.963       .  S
O1061     Cr1076   2.010       .  S
O1061      C1062   1.267       .  A
C1062      O1063   1.258       .  A
C1062      C2840   1.480       .  S
O1063     Cr1077   1.980       .  S
O1064     Cr1077   2.012       .  S
O1064      C1065   1.266       .  A
C1065      C4005   1.478       .  S
O1066     Cr1075   2.017       .  S
O1066      C1074   1.269       .  A
O1067     Cr1075   1.976       .  S
O1067      C1068   1.257       .  A
C1068      O1069   1.264       .  A
C1068      C2591   1.464       .  S
O1069     Cr1076   2.005       .  S
O1070     Cr1076   1.954       .  S
O1070      C1071   1.257       .  A
C1071      O1072   1.268       .  A
C1071      C2661   1.466       .  S
O1072     Cr1077   2.022       .  S
O1073     Cr1077   1.958       .  S
O1073      C1074   1.254       .  A
C1074      C2560   1.483       .  S
Cr1075     O1078   1.777       .  S
Cr1076     O1078   1.758       .  S
Cr1077     O1078   1.781       .  S
O1079     Cr1097   2.017       .  S
O1079      C1087   1.267       .  A
O1080     Cr1097   1.974       .  S
O1080      C1081   1.258       .  A
C1081      O1082   1.265       .  A
C1081      C2588   1.465       .  S
O1082     Cr1098   2.004       .  S
O1083     Cr1098   1.958       .  S
O1083      C1084   1.258       .  A
C1084      O1085   1.268       .  A
C1084      C2675   1.474       .  S
O1085     Cr1099   2.022       .  S
O1086     Cr1099   1.968       .  S
O1086      C1087   1.255       .  A
C1087      C2535   1.477       .  S
O1088     Cr1097   1.961       .  S
O1088      C1096   1.255       .  A
O1089     Cr1097   2.024       .  S
O1089      C1090   1.268       .  A
C1090      O1091   1.258       .  A
C1090      C2546   1.476       .  S
O1091     Cr1098   1.967       .  S
O1092     Cr1098   1.999       .  S
O1092      C1093   1.264       .  A
C1093      O1094   1.257       .  A
C1093      C2619   1.465       .  S
O1094     Cr1099   1.973       .  S
O1095     Cr1099   2.021       .  S
O1095      C1096   1.270       .  A
C1096      C4341   1.477       .  S
Cr1097     O1100   1.782       .  S
Cr1098     O1100   1.759       .  S
Cr1099     O1100   1.786       .  S
O1101     Cr1119   2.016       .  S
O1101      C1109   1.267       .  A
O1102     Cr1119   1.975       .  S
O1102      C1103   1.258       .  A
C1103      O1104   1.264       .  A
C1103      C2857   1.480       .  S
O1104     Cr1120   1.992       .  S
O1105     Cr1120   1.960       .  S
O1105      C1106   1.260       .  A
C1106      O1107   1.271       .  A
C1106      C2577   1.472       .  S
O1107     Cr1121   2.027       .  S
O1108     Cr1121   1.969       .  S
O1108      C1109   1.256       .  A
C1109      C4016   1.480       .  S
O1110     Cr1119   1.955       .  S
O1110      C1118   1.257       .  A
O1111     Cr1119   2.030       .  S
O1111      C1112   1.270       .  A
C1112      O1113   1.258       .  A
C1112      C2759   1.471       .  S
O1113     Cr1120   1.959       .  S
O1114     Cr1120   1.990       .  S
O1114      C1115   1.261       .  A
C1115      O1116   1.257       .  A
C1115      C2518   1.465       .  S
O1116     Cr1121   1.983       .  S
O1117     Cr1121   2.013       .  S
O1117      C1118   1.269       .  A
C1118      C3375   1.491       .  S
Cr1119     O1122   1.783       .  S
Cr1120     O1122   1.755       .  S
Cr1121     O1122   1.776       .  S
O1123     Cr1141   1.960       .  S
O1123      C1131   1.255       .  A
O1124     Cr1141   2.032       .  S
O1124      C1125   1.273       .  A
C1125      O1126   1.260       .  A
C1125      C2549   1.477       .  S
O1126     Cr1142   1.964       .  S
O1127     Cr1142   2.005       .  S
O1127      C1128   1.265       .  A
C1128      O1129   1.259       .  A
C1128      C2605   1.475       .  S
O1129     Cr1143   1.979       .  S
O1130     Cr1143   2.008       .  S
O1130      C1131   1.266       .  A
C1131      C4327   1.480       .  S
O1132     Cr1141   2.017       .  S
O1132      C1140   1.270       .  A
O1133     Cr1141   1.973       .  S
O1133      C1134   1.253       .  A
C1134      O1135   1.262       .  A
C1134      C2521   1.466       .  S
O1135     Cr1142   2.000       .  S
O1136     Cr1142   1.969       .  S
O1136      C1137   1.260       .  A
C1137      O1138   1.269       .  A
C1137      C2745   1.477       .  S
O1138     Cr1143   2.020       .  S
O1139     Cr1143   1.959       .  S
O1139      C1140   1.256       .  A
C1140      C3389   1.481       .  S
Cr1141     O1144   1.772       .  S
Cr1142     O1144   1.759       .  S
Cr1143     O1144   1.775       .  S
O1145     Cr1163   1.967   1_455  S
O1145      C1153   1.254       .  A
O1146     Cr1163   2.011       .  S
O1146      C1147   1.265   1_655  A
C1147      O1148   1.260       .  A
C1147      C2462   1.473       .  S
O1148     Cr1164   1.981   1_455  S
O1149     Cr1164   2.000   1_455  S
O1149      C1150   1.264       .  A
C1150      O1151   1.262       .  A
C1150      C2476   1.477       .  S
O1151     Cr1165   1.990   1_455  S
O1152     Cr1165   2.010   1_455  S
O1152      C1153   1.264       .  A
C1153      C2448   1.476       .  S
O1154     Cr1163   2.015       .  S
O1154      C1162   1.268       .  A
O1155     Cr1163   1.974       .  S
O1155      C1156   1.257       .  A
C1156      O1157   1.271       .  A
C1156      C2490   1.490       .  S
O1157     Cr1164   2.009       .  S
O1158     Cr1164   1.979       .  S
O1158      C1159   1.264       .  A
C1159      O1160   1.266       .  A
C1159      C2504   1.471       .  S
O1160     Cr1165   2.014       .  S
O1161     Cr1165   1.963       .  S
O1161      C1162   1.257       .  A
C1162      C4044   1.480       .  S
Cr1163     O1166   1.787       .  S
Cr1164     O1166   1.758       .  S
Cr1165     O1166   1.784       .  S
O1167     Cr1185   1.960       .  S
O1167      C1175   1.257       .  A
O1168     Cr1185   2.025       .  S
O1168      C1169   1.271       .  A
C1169      O1170   1.261       .  A
C1169      C2434   1.476       .  S
O1170     Cr1186   1.958       .  S
O1171     Cr1186   1.979       .  S
O1171      C1172   1.255       .  A
C1172      O1173   1.260       .  A
C1172      C2507   1.482       .  S
O1173     Cr1187   1.997       .  S
O1174     Cr1187   2.018       .  S
O1174      C1175   1.268       .  A
C1175      C4061   1.497       .  S
O1176     Cr1185   2.017       .  S
O1176      C1184   1.268       .  A
O1177     Cr1185   1.987       .  S
O1177      C1178   1.259       .  A
C1178      O1179   1.257       .  A
C1178      C2406   1.479       .  S
O1179     Cr1186   1.985       .  S
O1180     Cr1186   1.965       .  S
O1180      C1181   1.263       .  A
C1181      O1182   1.270       .  A
C1181      C2420   1.465       .  S
O1182     Cr1187   2.019       .  S
O1183     Cr1187   1.967       .  S
O1183      C1184   1.256       .  A
C1184      C3330   1.481       .  S
Cr1185     O1188   1.783       .  S
Cr1186     O1188   1.757       .  S
Cr1187     O1188   1.781       .  S
O1189     Cr1207   2.019       .  S
O1189      C1197   1.270       .  A
O1190     Cr1207   1.981       .  S
O1190      C1191   1.258       .  A
C1191      O1192   1.262       .  A
C1191      C2392   1.479       .  S
O1192     Cr1208   1.992       .  S
O1193     Cr1208   1.953       .  S
O1193      C1194   1.256       .  A
C1194      O1195   1.273       .  A
C1194      C2378   1.471       .  S
O1195     Cr1209   2.037       .  S
O1196     Cr1209   1.966       .  S
O1196      C1197   1.256       .  A
C1197      C4159   1.482       .  S
O1198     Cr1207   1.967       .  S
O1198      C1206   1.257       .  A
O1199     Cr1207   2.027       .  S
O1199      C1200   1.271       .  A
C1200      O1201   1.258       .  A
C1200      C2437   1.475       .  S
O1201     Cr1208   1.951       .  S
O1202     Cr1208   1.996       .  S
O1202      C1203   1.262       .  A
C1203      O1204   1.257       .  A
C1203      C2493   1.481       .  S
O1204     Cr1209   1.983       .  S
O1205     Cr1209   2.023       .  S
O1205      C1206   1.270       .  A
C1206      C4033   1.490       .  S
Cr1207     O1210   1.779       .  S
Cr1208     O1210   1.755       .  S
Cr1209     O1210   1.782       .  S
O1211     Cr1229   2.015   1_455  S
O1211      C1219   1.267       .  A
O1212     Cr1229   1.981   1_455  S
O1212      C1213   1.256       .  A
C1213      O1214   1.263       .  A
C1213      C2364   1.471       .  S
O1214     Cr1230   2.001   1_455  S
O1215     Cr1230   1.954   1_455  S
O1215      C1216   1.259       .  A
C1216      O1217   1.271   1_455  A
C1216      C2350   1.480       .  S
O1217     Cr1231   2.029       .  S
O1218     Cr1231   1.966   1_455  S
O1218      C1219   1.257       .  A
C1219      C4366   1.496       .  S
O1220     Cr1229   1.962       .  S
O1220      C1228   1.258       .  A
O1221     Cr1229   2.028       .  S
O1221      C1222   1.271       .  A
C1222      O1223   1.259       .  A
C1222      C2423   1.467       .  S
O1223     Cr1230   1.959       .  S
O1224     Cr1230   2.001       .  S
O1224      C1225   1.263       .  A
C1225      O1226   1.259       .  A
C1225      C2336   1.478       .  S
O1226     Cr1231   1.985       .  S
O1227     Cr1231   2.011       .  S
O1227      C1228   1.267       .  A
C1228      C3347   1.489       .  S
Cr1229     O1232   1.777       .  S
Cr1230     O1232   1.760       .  S
Cr1231     O1232   1.774       .  S
O1233     Cr1251   1.946       .  S
O1233      C1241   1.256       .  A
O1234     Cr1251   2.036       .  S
O1234      C1235   1.276       .  A
C1235      O1236   1.259       .  A
C1235      C2308   1.492       .  S
O1236     Cr1252   1.952       .  S
O1237     Cr1252   2.005       .  S
O1237      C1238   1.265       .  A
C1238      O1239   1.258       .  A
C1238      C2294   1.482       .  S
O1239     Cr1253   1.987       .  S
O1240     Cr1253   2.012       .  S
O1240      C1241   1.265       .  A
C1241      C3529   1.475       .  S
O1242     Cr1251   2.010       .  S
O1242      C1250   1.267       .  A
O1243     Cr1251   1.981       .  S
O1243      C1244   1.256       .  A
C1244      O1245   1.261       .  A
C1244      C2395   1.478       .  S
O1245     Cr1252   1.996       .  S
O1246     Cr1252   1.961       .  S
O1246      C1247   1.258       .  A
C1247      O1248   1.273       .  A
C1247      C2322   1.474       .  S
O1248     Cr1253   2.034       .  S
O1249     Cr1253   1.953       .  S
O1249      C1250   1.258       .  A
C1250      C4173   1.487       .  S
Cr1251     O1254   1.777       .  S
Cr1252     O1254   1.756       .  S
Cr1253     O1254   1.777       .  S
O1255     Cr1273   1.953       .  S
O1255      C1263   1.254       .  A
O1256     Cr1273   2.015       .  S
O1256      C1257   1.267       .  A
C1257      O1258   1.259       .  A
C1257      C2381   1.466       .  S
O1258     Cr1274   1.963       .  S
O1259     Cr1274   2.011       .  S
O1259      C1260   1.265       .  A
C1260      O1261   1.257       .  A
C1260      C2325   1.469       .  S
O1261     Cr1275   1.978       .  S
O1262     Cr1275   2.016       .  S
O1262      C1263   1.269       .  A
C1263      C4187   1.482       .  S
O1264     Cr1273   2.013   1_455  S
O1264      C1272   1.266       .  A
O1265     Cr1273   1.976   1_455  S
O1265      C1266   1.256       .  A
C1266      O1267   1.269   1_455  A
C1266      C2266   1.501       .  S
O1267     Cr1274   2.012       .  S
O1268     Cr1274   1.959   1_455  S
O1268      C1269   1.260       .  A
C1269      O1270   1.270   1_455  A
C1269      C2280   1.481       .  S
O1270     Cr1275   2.027       .  S
O1271     Cr1275   1.968   1_455  S
O1271      C1272   1.257       .  A
C1272      C3862   1.479       .  S
Cr1273     O1276   1.783       .  S
Cr1274     O1276   1.760       .  S
Cr1275     O1276   1.780       .  S
O1277     Cr1295   1.951       .  S
O1277      C1285   1.254       .  A
O1278     Cr1295   2.032       .  S
O1278      C1279   1.272       .  A
C1279      O1280   1.258       .  A
C1279      C2409   1.483       .  S
O1280     Cr1296   1.948       .  S
O1281     Cr1296   2.001       .  S
O1281      C1282   1.263       .  A
C1282      O1283   1.257       .  A
C1282      C2339   1.480       .  S
O1283     Cr1297   1.983       .  S
O1284     Cr1297   2.014       .  S
O1284      C1285   1.268       .  A
C1285      C3319   1.492       .  S
O1286     Cr1295   2.020       .  S
O1286      C1294   1.269       .  A
O1287     Cr1295   1.980       .  S
O1287      C1288   1.257       .  A
C1288      O1289   1.262       .  A
C1288      C2311   1.469       .  S
O1289     Cr1296   1.997       .  S
O1290     Cr1296   1.955       .  S
O1290      C1291   1.258       .  A
C1291      O1292   1.273       .  A
C1291      C2252   1.473       .  S
O1292     Cr1297   2.033       .  S
O1293     Cr1297   1.965       .  S
O1293      C1294   1.257       .  A
C1294      C3557   1.476       .  S
Cr1295     O1298   1.780       .  S
Cr1296     O1298   1.755       .  S
Cr1297     O1298   1.780       .  S
O1299     Cr1317   2.012       .  S
O1299      C1307   1.268       .  A
O1300     Cr1317   1.981       .  S
O1300      C1301   1.256       .  A
C1301      O1302   1.265       .  A
C1301      C2297   1.475       .  S
O1302     Cr1318   2.010       .  S
O1303     Cr1318   1.970       .  S
O1303      C1304   1.261       .  A
C1304      O1305   1.266       .  A
C1304      C2255   1.474       .  S
O1305     Cr1319   2.011       .  S
O1306     Cr1319   1.956       .  S
O1306      C1307   1.257       .  A
C1307      C3543   1.492       .  S
O1308     Cr1317   1.965   1_455  S
O1308      C1316   1.256       .  A
O1309     Cr1317   2.024   1_455  S
O1309      C1310   1.270       .  A
C1310      O1311   1.258       .  A
C1310      C2238   1.469       .  S
O1311     Cr1318   1.963   1_455  S
O1312     Cr1318   2.004   1_455  S
O1312      C1313   1.266       .  A
C1313      O1314   1.260       .  A
C1313      C2227   1.474       .  S
O1314     Cr1319   1.974   1_455  S
O1315     Cr1319   2.007   1_455  S
O1315      C1316   1.265       .  A
C1316      C3680   1.478       .  S
Cr1317     O1320   1.775       .  S
Cr1318     O1320   1.760       .  S
Cr1319     O1320   1.775       .  S
O1321     Cr1339   1.953       .  S
O1321      C1329   1.254       .  A
O1322     Cr1339   2.021       .  S
O1322      C1323   1.270       .  A
C1323      O1324   1.261       .  A
C1323      C2196   1.488       .  S
O1324     Cr1340   1.960       .  S
O1325     Cr1340   1.998       .  S
O1325      C1326   1.261       .  A
C1326      O1327   1.260       .  A
C1326      C2465   1.471       .  S
O1327     Cr1341   1.991       .  S
O1328     Cr1341   2.028       .  S
O1328      C1329   1.271       .  A
C1329      C2182   1.483       .  S
O1330     Cr1339   2.012       .  S
O1330      C1338   1.266       .  A
O1331     Cr1339   1.974       .  S
O1331      C1332   1.257       .  A
C1332      O1333   1.262       .  A
C1332      C2210   1.466       .  S
O1333     Cr1340   1.995       .  S
O1334     Cr1340   1.958       .  S
O1334      C1335   1.258       .  A
C1335      O1336   1.272       .  A
C1335      C2269   1.469       .  S
O1336     Cr1341   2.031       .  S
O1337     Cr1341   1.973       .  S
O1337      C1338   1.257       .  A
C1338      C3890   1.480       .  S
Cr1339     O1342   1.780       .  S
Cr1340     O1342   1.757       .  S
Cr1341     O1342   1.775       .  S
O1343     Cr1361   2.011       .  S
O1343      C1351   1.268       .  A
O1344     Cr1361   1.972       .  S
O1344      C1345   1.254       .  A
C1345      O1346   1.259       .  A
C1345      C2213   1.466       .  S
O1346     Cr1362   1.992       .  S
O1347     Cr1362   1.951       .  S
O1347      C1348   1.260       .  A
C1348      O1349   1.274       .  A
C1348      C2283   1.477       .  S
O1349     Cr1363   2.034       .  S
O1350     Cr1363   1.970       .  S
O1350      C1351   1.258       .  A
C1351      C3876   1.488       .  S
O1352     Cr1361   1.952       .  S
O1352      C1360   1.254       .  A
O1353     Cr1361   2.023       .  S
O1353      C1354   1.271       .  A
C1354      O1355   1.261       .  A
C1354      C2168   1.484       .  S
O1355     Cr1362   1.952       .  S
O1356     Cr1362   1.985       .  S
O1356      C1357   1.260       .  A
C1357      O1358   1.257       .  A
C1357      C2241   1.483       .  S
O1358     Cr1363   1.991       .  S
O1359     Cr1363   2.016       .  S
O1359      C1360   1.269       .  A
C1360      C3655   1.495       .  S
Cr1361     O1364   1.775       .  S
Cr1362     O1364   1.754       .  S
Cr1363     O1364   1.778       .  S
O1365     Cr1383   1.966       .  S
O1365      C1373   1.257       .  A
O1366     Cr1383   2.016       .  S
O1366      C1367   1.268       .  A
C1367      O1368   1.261       .  A
C1367      C2154   1.467       .  S
O1368     Cr1384   1.972       .  S
O1369     Cr1384   2.004       .  S
O1369      C1370   1.264       .  A
C1370      O1371   1.256       .  A
C1370      C2367   1.473       .  S
O1371     Cr1385   1.981       .  S
O1372     Cr1385   2.005       .  S
O1372      C1373   1.266       .  A
C1373      C4380   1.480       .  S
O1374     Cr1383   2.012       .  S
O1374      C1382   1.268       .  A
O1375     Cr1383   1.982       .  S
O1375      C1376   1.259       .  A
C1376      O1377   1.263       .  A
C1376      C2199   1.468       .  S
O1377     Cr1384   1.999       .  S
O1378     Cr1384   1.971       .  S
O1378      C1379   1.259       .  A
C1379      O1380   1.270       .  A
C1379      C2479   1.472       .  S
O1380     Cr1385   2.023       .  S
O1381     Cr1385   1.956       .  S
O1381      C1382   1.256       .  A
C1382      C2143   1.483       .  S
Cr1383     O1386   1.778       .  S
Cr1384     O1386   1.759       .  S
Cr1385     O1386   1.773       .  S
O1387     Cr1405   2.018       .  S
O1387      C1395   1.268       .  A
O1388     Cr1405   1.973       .  S
O1388      C1389   1.259       .  A
C1389      O1390   1.261       .  A
C1389      C2171   1.464       .  S
O1390     Cr1406   1.992       .  S
O1391     Cr1406   1.961       .  S
O1391      C1392   1.258       .  A
C1392      O1393   1.267       .  A
C1392      C2224   1.462       .  S
O1393     Cr1407   2.017       .  S
O1394     Cr1407   1.971       .  S
O1394      C1395   1.256       .  A
C1395      C3669   1.482       .  S
O1396     Cr1405   1.959       .  S
O1396      C1404   1.256       .  A
O1397     Cr1405   2.015       .  S
O1397      C1398   1.268       .  A
C1398      O1399   1.259       .  A
C1398      C2157   1.469       .  S
O1399     Cr1406   1.967       .  S
O1400     Cr1406   1.992       .  S
O1400      C1401   1.260       .  A
C1401      O1402   1.258       .  A
C1401      C2353   1.461       .  S
O1402     Cr1407   1.981       .  S
O1403     Cr1407   2.014       .  S
O1403      C1404   1.268       .  A
C1404      C4397   1.496       .  S
Cr1405     O1408   1.784       .  S
Cr1406     O1408   1.760       .  S
Cr1407     O1408   1.784       .  S
O1409     Cr1427   1.975       .  S
O1409      C1417   1.260       .  A
O1410     Cr1427   2.010       .  S
O1410      C1411   1.268       .  A
C1411      O1412   1.264       .  A
C1411      C2098   1.490       .  S
O1412     Cr1428   1.984       .  S
O1413     Cr1428   2.004       .  S
O1413      C1414   1.266       .  A
C1414      O1415   1.264       .  A
C1414      C2126   1.483       .  S
O1415     Cr1429   1.984       .  S
O1416     Cr1429   2.010       .  S
O1416      C1417   1.264       .  A
C1417      C2112   1.470       .  S
O1418     Cr1427   2.007       .  S
O1418      C1426   1.265       .  A
O1419     Cr1427   1.968       .  S
O1419      C1420   1.258       .  A
C1420      O1421   1.263       .  A
C1420      C1448   1.467       .  S
O1421     Cr1428   2.010       .  S
O1422     Cr1428   1.980       .  S
O1422      C1423   1.260       .  A
C1423      O1424   1.261       .  A
C1423      C1470   1.461       .  S
O1424     Cr1429   1.997       .  S
O1425     Cr1429   1.964       .  S
O1425      C1426   1.257       .  A
C1426      C1492   1.461       .  S
Cr1427     O1430   1.776       .  S
Cr1428     O1430   1.780       .  S
Cr1429     O1430   1.781       .  S
O1431     Cr1449   2.013       .  S
O1431      C1439   1.265       .  A
O1432     Cr1449   1.983       .  S
O1432      C1433   1.264       .  A
C1433      O1434   1.265       .  A
C1433      C2563   1.482       .  S
O1434     Cr1450   2.004       .  S
O1435     Cr1450   1.980       .  S
O1435      C1436   1.262       .  A
C1436      O1437   1.267       .  A
C1436      C2532   1.481       .  S
O1437     Cr1451   2.019       .  S
O1438     Cr1451   1.974       .  S
O1438      C1439   1.260       .  A
C1439      C2647   1.470       .  S
O1440     Cr1449   1.963       .  S
O1440      C1448   1.255       .  A
O1441     Cr1449   1.999       .  S
O1441      C1442   1.262       .  A
C1442      O1443   1.260       .  A
C1442      C1489   1.460       .  S
O1443     Cr1450   1.976       .  S
O1444     Cr1450   2.014       .  S
O1444      C1445   1.264       .  A
C1445      O1446   1.257       .  A
C1445      C1464   1.463       .  S
O1446     Cr1451   1.962       .  S
O1447     Cr1451   2.016       .  S
O1447      C1448   1.266       .  A
Cr1449     O1452   1.777       .  S
Cr1450     O1452   1.774       .  S
Cr1451     O1452   1.775       .  S
O1453     Cr1471   1.977       .  S
O1453      C1461   1.261       .  A
O1454     Cr1471   2.005       .  S
O1454      C1455   1.265       .  A
C1455      O1456   1.259       .  A
C1455      C2140   1.485       .  S
O1456     Cr1472   1.974       .  S
O1457     Cr1472   2.017       .  S
O1457      C1458   1.268       .  A
C1458      O1459   1.261       .  A
C1458      C2185   1.475       .  S
O1459     Cr1473   1.977       .  S
O1460     Cr1473   2.020       .  S
O1460      C1461   1.268       .  A
C1461      C2451   1.474       .  S
O1462     Cr1471   2.002       .  S
O1462      C1470   1.262       .  A
O1463     Cr1471   1.960       .  S
O1463      C1464   1.257       .  A
C1464      O1465   1.267       .  A
O1465     Cr1472   2.016       .  S
O1466     Cr1472   1.958       .  S
O1466      C1467   1.255       .  A
C1467      O1468   1.266       .  A
C1467      C1486   1.465       .  S
O1468     Cr1473   2.019       .  S
O1469     Cr1473   1.975       .  S
O1469      C1470   1.259       .  A
Cr1471     O1474   1.773       .  S
Cr1472     O1474   1.775       .  S
Cr1473     O1474   1.776       .  S
O1475     Cr1493   2.012       .  S
O1475      C1483   1.267       .  A
O1476     Cr1493   1.975       .  S
O1476      C1477   1.262       .  A
C1477      O1478   1.263       .  A
C1477      C2896   1.480       .  S
O1478     Cr1494   2.002       .  S
O1479     Cr1494   1.976       .  S
O1479      C1480   1.264       .  A
C1480      O1481   1.266       .  A
C1480      C3039   1.489       .  S
O1481     Cr1495   2.007       .  S
O1482     Cr1495   1.983       .  S
O1482      C1483   1.265       .  A
C1483      C3011   1.490       .  S
O1484     Cr1493   1.966       .  S
O1484      C1492   1.257       .  A
O1485     Cr1493   2.009       .  S
O1485      C1486   1.264       .  A
C1486      O1487   1.258       .  A
O1487     Cr1494   1.966       .  S
O1488     Cr1494   1.992       .  S
O1488      C1489   1.259       .  A
C1489      O1490   1.261       .  A
O1490     Cr1495   1.984       .  S
O1491     Cr1495   2.004       .  S
O1491      C1492   1.263       .  A
Cr1493     O1496   1.779       .  S
Cr1494     O1496   1.776       .  S
Cr1495     O1496   1.779       .  S
O1497     Cr1515   1.972   1_554  S
O1497      C1505   1.259       .  A
O1498     Cr1515   2.022       .  S
O1498      C1499   1.269   1_556  A
C1499      O1500   1.256       .  A
C1499      C2056   1.459       .  S
O1500     Cr1516   1.952   1_554  S
O1501     Cr1516   1.993       .  S
O1501      C1502   1.262   1_556  A
C1502      O1503   1.257       .  A
C1502      C2042   1.468       .  S
O1503     Cr1517   1.976   1_554  S
O1504     Cr1517   2.016       .  S
O1504      C1505   1.270   1_556  A
C1505      C3736   1.495       .  S
O1506     Cr1515   2.010       .  S
O1506      C1514   1.266       .  A
O1507     Cr1515   1.990       .  S
O1507      C1508   1.259       .  A
C1508      O1509   1.263       .  A
C1508      C2084   1.475       .  S
O1509     Cr1516   2.005       .  S
O1510     Cr1516   1.952       .  S
O1510      C1511   1.260       .  A
C1511      O1512   1.271       .  A
C1511      C2070   1.480       .  S
O1512     Cr1517   2.027       .  S
O1513     Cr1517   1.961       .  S
O1513      C1514   1.256       .  A
C1514      C3921   1.489       .  S
Cr1515     O1518   1.777       .  S
Cr1516     O1518   1.757       .  S
Cr1517     O1518   1.780       .  S
O1519     Cr1537   1.969       .  S
O1519      C1527   1.258       .  A
O1520     Cr1537   2.036       .  S
O1520      C1521   1.275       .  A
C1521      O1522   1.261       .  A
C1521      C2028   1.481       .  S
O1522     Cr1538   1.949       .  S
O1523     Cr1538   1.987       .  S
O1523      C1524   1.258       .  A
C1524      O1525   1.259       .  A
C1524      C2073   1.477       .  S
O1525     Cr1539   1.994       .  S
O1526     Cr1539   2.008       .  S
O1526      C1527   1.266       .  A
C1527      C3932   1.493       .  S
O1528     Cr1537   2.015   1_545  S
O1528      C1536   1.270       .  A
O1529     Cr1537   1.997   1_545  S
O1529      C1530   1.258       .  A
C1530      O1531   1.258   1_545  A
C1530      C2000   1.477       .  S
O1531     Cr1538   1.999       .  S
O1532     Cr1538   1.958   1_545  S
O1532      C1533   1.263       .  A
C1533      O1534   1.271       .  A
C1533      C2014   1.468       .  S
O1534     Cr1539   2.021   1_545  S
O1535     Cr1539   1.965   1_545  S
O1535      C1536   1.259       .  A
C1536      C2101   1.497       .  S
Cr1537     O1540   1.773       .  S
Cr1538     O1540   1.754       .  S
Cr1539     O1540   1.778       .  S
O1541     Cr1559   2.019       .  S
O1541      C1549   1.271       .  A
O1542     Cr1559   1.979       .  S
O1542      C1543   1.254       .  A
C1543      O1544   1.260       .  A
C1543      C1986   1.467       .  S
O1544     Cr1560   1.997       .  S
O1545     Cr1560   1.948       .  S
O1545      C1546   1.259       .  A
C1546      O1547   1.273       .  A
C1546      C1972   1.475       .  S
O1547     Cr1561   2.035       .  S
O1548     Cr1561   1.962       .  S
O1548      C1549   1.258       .  A
C1549      C3599   1.497       .  S
O1550     Cr1559   1.957   1_545  S
O1550      C1558   1.254       .  A
O1551     Cr1559   2.045       .  S
O1551      C1552   1.276   1_565  A
C1552      O1553   1.257       .  A
C1552      C1944   1.479       .  S
O1553     Cr1560   1.947   1_545  S
O1554     Cr1560   1.984       .  S
O1554      C1555   1.259   1_565  A
C1555      O1556   1.261       .  A
C1555      C1958   1.481       .  S
O1556     Cr1561   1.998   1_545  S
O1557     Cr1561   2.013   1_545  S
O1557      C1558   1.266       .  A
C1558      C3403   1.473       .  S
Cr1559     O1562   1.775       .  S
Cr1560     O1562   1.747       .  S
Cr1561     O1562   1.779       .  S
O1563     Cr1581   1.950       .  S
O1563      C1571   1.251       .  A
O1564     Cr1581   2.019       .  S
O1564      C1565   1.268       .  A
C1565      O1566   1.259       .  A
C1565      C1930   1.470       .  S
O1566     Cr1582   1.969       .  S
O1567     Cr1582   1.996       .  S
O1567      C1568   1.261       .  A
C1568      O1569   1.257       .  A
C1568      C1989   1.465       .  S
O1569     Cr1583   1.981       .  S
O1570     Cr1583   2.020       .  S
O1570      C1571   1.270       .  A
C1571      C3582   1.494       .  S
O1572     Cr1581   2.013   1_455  S
O1572      C1580   1.266       .  A
O1573     Cr1581   1.968   1_455  S
O1573      C1574   1.256       .  A
C1574      O1575   1.268       .  A
C1574      C2059   1.483       .  S
O1575     Cr1582   2.011   1_455  S
O1576     Cr1582   1.966   1_455  S
O1576      C1577   1.263       .  A
C1577      O1578   1.271   1_455  A
C1577      C1916   1.471       .  S
O1578     Cr1583   2.026       .  S
O1579     Cr1583   1.964   1_455  S
O1579      C1580   1.255       .  A
C1580      C3767   1.475       .  S
Cr1581     O1584   1.777       .  S
Cr1582     O1584   1.759       .  S
Cr1583     O1584   1.775       .  S
O1585     Cr1603   2.018   1_545  S
O1585      C1593   1.270       .  A
O1586     Cr1603   1.985   1_545  S
O1586      C1587   1.257       .  A
C1587      O1588   1.261   1_545  A
C1587      C1860   1.469       .  S
O1588     Cr1604   1.995       .  S
O1589     Cr1604   1.943   1_545  S
O1589      C1590   1.258       .  A
C1590      O1591   1.272   1_545  A
C1590      C1874   1.486       .  S
O1591     Cr1605   2.032       .  S
O1592     Cr1605   1.951   1_545  S
O1592      C1593   1.254       .  A
C1593      C4072   1.497       .  S
O1594     Cr1603   1.966       .  S
O1594      C1602   1.256       .  A
O1595     Cr1603   2.029       .  S
O1595      C1596   1.272       .  A
C1596      O1597   1.258       .  A
C1596      C1888   1.467       .  S
O1597     Cr1604   1.946       .  S
O1598     Cr1604   1.997       .  S
O1598      C1599   1.262       .  A
C1599      O1600   1.257       .  A
C1599      C1902   1.476       .  S
O1600     Cr1605   1.976       .  S
O1601     Cr1605   2.016       .  S
O1601      C1602   1.267       .  A
C1602      C4243   1.478       .  S
Cr1603     O1606   1.775       .  S
Cr1604     O1606   1.753       .  S
Cr1605     O1606   1.780       .  S
O1607     Cr1625   1.953       .  S
O1607      C1615   1.255       .  A
O1608     Cr1625   2.024       .  S
O1608      C1609   1.270       .  A
C1609      O1610   1.257       .  A
C1609      C1846   1.463       .  S
O1610     Cr1626   1.960       .  S
O1611     Cr1626   1.990       .  S
O1611      C1612   1.261       .  A
C1612      O1613   1.257       .  A
C1612      C1905   1.475       .  S
O1613     Cr1627   1.981       .  S
O1614     Cr1627   2.018       .  S
O1614      C1615   1.270       .  A
C1615      C4257   1.494       .  S
O1616     Cr1625   2.008   1_554  S
O1616      C1624   1.267       .  A
O1617     Cr1625   1.981   1_554  S
O1617      C1618   1.258       .  A
C1618      O1619   1.262   1_554  A
C1618      C1933   1.468       .  S
O1619     Cr1626   2.002       .  S
O1620     Cr1626   1.950   1_554  S
O1620      C1621   1.260       .  A
C1621      O1622   1.272   1_554  A
C1621      C1975   1.475       .  S
O1622     Cr1627   2.029       .  S
O1623     Cr1627   1.963   1_554  S
O1623      C1624   1.256       .  A
C1624      C3571   1.484       .  S
Cr1625     O1628   1.771       .  S
Cr1626     O1628   1.753       .  S
Cr1627     O1628   1.777       .  S
O1629     Cr1647   1.975       .  S
O1629      C1637   1.259       .  A
O1630     Cr1647   2.008       .  S
O1630      C1631   1.267       .  A
C1631      O1632   1.264       .  A
C1631      C1891   1.464       .  S
O1632     Cr1648   1.968       .  S
O1633     Cr1648   2.005       .  S
O1633      C1634   1.264       .  A
C1634      O1635   1.257       .  A
C1634      C1849   1.476       .  S
O1635     Cr1649   1.980       .  S
O1636     Cr1649   2.013       .  S
O1636      C1637   1.267       .  A
C1637      C4271   1.486       .  S
O1638     Cr1647   2.008   1_455  S
O1638      C1646   1.266       .  A
O1639     Cr1647   2.003   1_455  S
O1639      C1640   1.263       .  A
C1640      O1641   1.259       .  A
C1640      C2031   1.485       .  S
O1641     Cr1648   1.982   1_455  S
O1642     Cr1648   1.971   1_455  S
O1642      C1643   1.259       .  A
C1643      O1644   1.270   1_455  A
C1643      C2087   1.473       .  S
O1644     Cr1649   2.026       .  S
O1645     Cr1649   1.961   1_455  S
O1645      C1646   1.257       .  A
C1646      C3904   1.488       .  S
Cr1647     O1650   1.777       .  S
Cr1648     O1650   1.756       .  S
Cr1649     O1650   1.776       .  S
O1651     Cr1669   1.958   1_455  S
O1651      C1659   1.257       .  A
O1652     Cr1669   2.027       .  S
O1652      C1653   1.270   1_655  A
C1653      O1654   1.260       .  A
C1653      C2003   1.477       .  S
O1654     Cr1670   1.975   1_455  S
O1655     Cr1670   1.996   1_455  S
O1655      C1656   1.263       .  A
C1656      O1657   1.257       .  A
C1656      C1818   1.464       .  S
O1657     Cr1671   1.971   1_455  S
O1658     Cr1671   2.014   1_455  S
O1658      C1659   1.268       .  A
C1659      C2129   1.491       .  S
O1660     Cr1669   2.011       .  S
O1660      C1668   1.267       .  A
O1661     Cr1669   1.976       .  S
O1661      C1662   1.256       .  A
C1662      O1663   1.264       .  A
C1662      C1863   1.470       .  S
O1663     Cr1670   2.003       .  S
O1664     Cr1670   1.976       .  S
O1664      C1665   1.261       .  A
C1665      O1666   1.269       .  A
C1665      C1832   1.473       .  S
O1666     Cr1671   2.021       .  S
O1667     Cr1671   1.960       .  S
O1667      C1668   1.257       .  A
C1668      C4089   1.486       .  S
Cr1669     O1672   1.773       .  S
Cr1670     O1672   1.757       .  S
Cr1671     O1672   1.776       .  S
O1673     Cr1691   2.006   1_554  S
O1673      C1681   1.265       .  A
O1674     Cr1691   1.990   1_554  S
O1674      C1675   1.260       .  A
C1675      O1676   1.262   1_554  A
C1675      C1804   1.473       .  S
O1676     Cr1692   1.993       .  S
O1677     Cr1692   1.952   1_554  S
O1677      C1678   1.259       .  A
C1678      O1679   1.268   1_554  A
C1678      C1961   1.479       .  S
O1679     Cr1693   2.018       .  S
O1680     Cr1693   1.963   1_554  S
O1680      C1681   1.256       .  A
C1681      C3417   1.478       .  S
O1682     Cr1691   1.968       .  S
O1682      C1690   1.261       .  A
O1683     Cr1691   2.024       .  S
O1683      C1684   1.267       .  A
C1684      O1685   1.259       .  A
C1684      C1835   1.475       .  S
O1685     Cr1692   1.972       .  S
O1686     Cr1692   1.989       .  S
O1686      C1687   1.258       .  A
C1687      O1688   1.257       .  A
C1687      C1877   1.471       .  S
O1688     Cr1693   1.985       .  S
O1689     Cr1693   2.008       .  S
O1689      C1690   1.268       .  A
C1690      C4103   1.485       .  S
Cr1691     O1694   1.783       .  S
Cr1692     O1694   1.757       .  S
Cr1693     O1694   1.782       .  S
O1695     Cr1713   2.016       .  S
O1695      C1703   1.268   1_565  A
O1696     Cr1713   1.972   1_545  S
O1696      C1697   1.258       .  A
C1697      O1698   1.264       .  A
C1697      C1776   1.462       .  S
O1698     Cr1714   2.002   1_545  S
O1699     Cr1714   1.964   1_545  S
O1699      C1700   1.260       .  A
C1700      O1701   1.267   1_545  A
C1700      C1790   1.473       .  S
O1701     Cr1715   2.019       .  S
O1702     Cr1715   1.963   1_545  S
O1702      C1703   1.256       .  A
C1703      C4436   1.481       .  S
O1704     Cr1713   1.966       .  S
O1704      C1712   1.255       .  A
O1705     Cr1713   2.016       .  S
O1705      C1706   1.265       .  A
C1706      O1707   1.257       .  A
C1706      C1919   1.469       .  S
O1707     Cr1714   1.961       .  S
O1708     Cr1714   1.993       .  S
O1708      C1709   1.263       .  A
C1709      O1710   1.259       .  A
C1709      C2045   1.469       .  S
O1710     Cr1715   1.974       .  S
O1711     Cr1715   2.016       .  S
O1711      C1712   1.267       .  A
C1712      C3753   1.480       .  S
Cr1713     O1716   1.789       .  S
Cr1714     O1716   1.766       .  S
Cr1715     O1716   1.790       .  S
O1717     Cr1735   2.017       .  S
O1717      C1725   1.268       .  A
O1718     Cr1735   1.966       .  S
O1718      C1719   1.256       .  A
C1719      O1720   1.257       .  A
C1719      C1821   1.465       .  S
O1720     Cr1736   1.986       .  S
O1721     Cr1736   1.973       .  S
O1721      C1722   1.262       .  A
C1722      O1723   1.271       .  A
C1722      C2017   1.475       .  S
O1723     Cr1737   2.021       .  S
O1724     Cr1737   1.978       .  S
O1724      C1725   1.259       .  A
C1725      C2115   1.484       .  S
O1726     Cr1735   1.953   1_554  S
O1726      C1734   1.255       .  A
O1727     Cr1735   2.005       .  S
O1727      C1728   1.267   1_556  A
C1728      O1729   1.262       .  A
C1728      C1762   1.462       .  S
O1729     Cr1736   1.972   1_554  S
O1730     Cr1736   1.987       .  S
O1730      C1731   1.260   1_556  A
C1731      O1732   1.262       .  A
C1731      C1793   1.494       .  S
O1732     Cr1737   2.002   1_554  S
O1733     Cr1737   2.017   1_554  S
O1733      C1734   1.267       .  A
C1734      C4422   1.494       .  S
Cr1735     O1738   1.782       .  S
Cr1736     O1738   1.761       .  S
Cr1737     O1738   1.782       .  S
O1739     Cr1757   2.011   1_455  S
O1739      C1747   1.267       .  A
O1740     Cr1757   1.980   1_455  S
O1740      C1741   1.257       .  A
C1741      O1742   1.257       .  A
C1741      C1765   1.462       .  S
O1742     Cr1758   1.991   1_455  S
O1743     Cr1758   1.958   1_455  S
O1743      C1744   1.261       .  A
C1744      O1745   1.271       .  A
C1744      C1779   1.471       .  S
O1745     Cr1759   2.019   1_455  S
O1746     Cr1759   1.976   1_455  S
O1746      C1747   1.257       .  A
C1747      C4408   1.482       .  S
O1748     Cr1757   1.966       .  S
O1748      C1756   1.256       .  A
O1749     Cr1757   2.020       .  S
O1749      C1750   1.270       .  A
C1750      O1751   1.264       .  A
C1750      C1807   1.487       .  S
O1751     Cr1758   1.957       .  S
O1752     Cr1758   1.990       .  S
O1752      C1753   1.262       .  A
C1753      O1754   1.260       .  A
C1753      C1947   1.490       .  S
O1754     Cr1759   1.997       .  S
O1755     Cr1759   2.014       .  S
O1755      C1756   1.267       .  A
C1756      C3428   1.487       .  S
Cr1757     O1760   1.774       .  S
Cr1758     O1760   1.758       .  S
Cr1759     O1760   1.782       .  S
C1761      C1762   1.402       .  A
C1761      C1766   1.401       .  A
C1761      H1768   1.084       .  S
C1762      C1763   1.414       .  A
C1763      C1764   1.398       .  A
C1763      N1770   1.439       .  S
C1764      C1765   1.398       .  A
C1764      H1769   1.079       .  S
C1765      C1766   1.407       .  A
C1766      N1767   1.438       .  S
N1767      H1771   1.046       .  S
N1767      H1772   1.045   1_455  S
N1770      H1773   1.044       .  S
N1770      H1774   1.045       .  S
C1775      C1776   1.397       .  A
C1775      C1780   1.395       .  A
C1775      H1782   1.080       .  S
C1776      C1777   1.414       .  A
C1777      C1778   1.401       .  A
C1777      N1784   1.438       .  S
C1778      C1779   1.404       .  A
C1778      H1783   1.084       .  S
C1779      C1780   1.416       .  A
C1780      N1781   1.439       .  S
N1781      H1785   1.046       .  S
N1781      H1786   1.043       .  S
N1784      H1787   1.043   1_545  S
N1784      H1788   1.046       .  S
C1789      C1790   1.404       .  A
C1789      C1794   1.414       .  A
C1789      H1796   1.083       .  S
C1790      C1791   1.403       .  A
C1791      C1792   1.398       .  A
C1791      N1798   1.439       .  S
C1792      C1793   1.410       .  A
C1792      H1797   1.083       .  S
C1793      C1794   1.417       .  A
C1794      N1795   1.436       .  S
N1795      H1799   1.046       .  S
N1795      H1800   1.046       .  S
N1798      H1801   1.046   1_545  S
N1798      H1802   1.046       .  S
C1803      C1804   1.401       .  A
C1803      C1808   1.412       .  A
C1803      H1810   1.084       .  S
C1804      C1805   1.408       .  A
C1805      C1806   1.393       .  A
C1805      N1812   1.435       .  S
C1806      C1807   1.402       .  A
C1806      H1811   1.083       .  S
C1807      C1808   1.420       .  A
C1808      N1809   1.437       .  S
N1809      H1813   1.046       .  S
N1809      H1814   1.045       .  S
N1812      H1815   1.045       .  S
N1812      H1816   1.046       .  S
C1817      C1818   1.404       .  A
C1817      C1822   1.407       .  A
C1817      H1824   1.084       .  S
C1818      C1819   1.408       .  A
C1819      C1820   1.396       .  A
C1819      N1826   1.439       .  S
C1820      C1821   1.400       .  A
C1820      H1825   1.083       .  S
C1821      C1822   1.408       .  A
C1822      N1823   1.437       .  S
N1823      H1827   1.046       .  S
N1823      H1828   1.045       .  S
N1826      H1829   1.044       .  S
N1826      H1830   1.045       .  S
C1831      C1832   1.401       .  A
C1831      C1836   1.402       .  A
C1831      H1838   1.084       .  S
C1832      C1833   1.410       .  A
C1833      C1834   1.408       .  A
C1833      N1840   1.438       .  S
C1834      C1835   1.403       .  A
C1834      H1839   1.084       .  S
C1835      C1836   1.416       .  A
C1836      N1837   1.439       .  S
N1837      H1841   1.046       .  S
N1837      H1842   1.044       .  S
N1840      H1843   1.046       .  S
N1840      H1844   1.046       .  S
C1845      C1846   1.401       .  A
C1845      C1850   1.407       .  A
C1845      H1852   1.084       .  S
C1846      C1847   1.405       .  A
C1847      C1848   1.401       .  A
C1847      N1854   1.438       .  S
C1848      C1849   1.404       .  A
C1848      H1853   1.083       .  S
C1849      C1850   1.413       .  A
C1850      N1851   1.437       .  S
N1851      H1855   1.046       .  S
N1851      H1856   1.045       .  S
N1854      H1857   1.045       .  S
N1854      H1858   1.046       .  S
C1859      C1860   1.403       .  A
C1859      C1864   1.405       .  A
C1859      H1866   1.084       .  S
C1860      C1861   1.415       .  A
C1861      C1862   1.394       .  A
C1861      N1868   1.438       .  S
C1862      C1863   1.400       .  A
C1862      H1867   1.085       .  S
C1863      C1864   1.419       .  A
C1864      N1865   1.439       .  S
N1865      H1869   1.045       .  S
N1865      H1870   1.042       .  S
N1868      H1871   1.043   1_545  S
N1868      H1872   1.045   1_545  S
C1873      C1874   1.404       .  A
C1873      C1878   1.382       .  A
C1873      H1880   1.084       .  S
C1874      C1875   1.417       .  A
C1875      C1876   1.415       .  A
C1875      N1882   1.436       .  S
C1876      C1877   1.405       .  A
C1876      H1881   1.084       .  S
C1877      C1878   1.407       .  A
C1878      N1879   1.429       .  S
N1879      H1883   1.044       .  S
N1879      H1884   1.042       .  S
N1882      H1885   1.046       .  S
N1882      H1886   1.046       .  S
C1887      C1888   1.403       .  A
C1887      C1892   1.397       .  A
C1887      H1894   1.085       .  S
C1888      C1889   1.417       .  A
C1889      C1890   1.404       .  A
C1889      N1896   1.438       .  S
C1890      C1891   1.403       .  A
C1890      H1895   1.084       .  S
C1891      C1892   1.404       .  A
C1892      N1893   1.438       .  S
N1893      H1897   1.046       .  S
N1893      H1898   1.046       .  S
N1896      H1899   1.042       .  S
N1896      H1900   1.046       .  S
C1901      C1902   1.406       .  A
C1901      C1906   1.409       .  A
C1901      H1908   1.083       .  S
C1902      C1903   1.411       .  A
C1903      C1904   1.396       .  A
C1903      N1910   1.438       .  S
C1904      C1905   1.402       .  A
C1904      H1909   1.084       .  S
C1905      C1906   1.413       .  A
C1906      N1907   1.437       .  S
N1907      H1911   1.046       .  S
N1907      H1912   1.046       .  S
N1910      H1913   1.045       .  S
N1910      H1914   1.046       .  S
C1915      C1916   1.400       .  A
C1915      C1920   1.402       .  A
C1915      H1922   1.084       .  S
C1916      C1917   1.409       .  A
C1917      C1918   1.407       .  A
C1917      N1924   1.432       .  S
C1918      C1919   1.403       .  A
C1918      H1923   1.084       .  S
C1919      C1920   1.410       .  A
C1920      N1921   1.439       .  S
N1921      H1925   1.046       .  S
N1921      H1926   1.045       .  S
N1924      H1927   1.045       .  S
N1924      H1928   1.046       .  S
C1929      C1930   1.403       .  A
C1929      C1934   1.401       .  A
C1929      H1936   1.085       .  S
C1930      C1931   1.408       .  A
C1931      C1932   1.403       .  A
C1931      N1938   1.438       .  S
C1932      C1933   1.403       .  A
C1932      H1937   1.084       .  S
C1933      C1934   1.416       .  A
C1934      N1935   1.439       .  S
N1935      H1939   1.046       .  S
N1935      H1940   1.043       .  S
N1938      H1941   1.045       .  S
N1938      H1942   1.046       .  S
C1943      C1944   1.405       .  A
C1943      C1948   1.417       .  A
C1943      H1950   1.083       .  S
C1944      C1945   1.411       .  A
C1945      C1946   1.394       .  A
C1945      N1952   1.440       .  S
C1946      C1947   1.404       .  A
C1946      H1951   1.083       .  S
C1947      C1948   1.418       .  A
C1948      N1949   1.437       .  S
N1949      H1953   1.046       .  S
N1949      H1954   1.046       .  S
N1952      H1955   1.045   1_545  S
N1952      H1956   1.046       .  S
C1957      C1958   1.407       .  A
C1957      C1962   1.414       .  A
C1957      H1964   1.083       .  S
C1958      C1959   1.413       .  A
C1959      C1960   1.390       .  A
C1959      N1966   1.434       .  S
C1960      C1961   1.400       .  A
C1960      H1965   1.084       .  S
C1961      C1962   1.415       .  A
C1962      N1963   1.437       .  S
N1963      H1967   1.046       .  S
N1963      H1968   1.045       .  S
N1966      H1969   1.046       .  S
N1966      H1970   1.046       .  S
C1971      C1972   1.406       .  A
C1971      C1976   1.412       .  A
C1971      H1978   1.083       .  S
C1972      C1973   1.411       .  A
C1973      C1974   1.392       .  A
C1973      N1980   1.440       .  S
C1974      C1975   1.401       .  A
C1974      H1979   1.084       .  S
C1975      C1976   1.412       .  A
C1976      N1977   1.437       .  S
N1977      H1981   1.046       .  S
N1977      H1982   1.046       .  S
N1980      H1983   1.046       .  S
N1980      H1984   1.046       .  S
C1985      C1986   1.404       .  A
C1985      C1990   1.407       .  A
C1985      H1992   1.084       .  S
C1986      C1987   1.409       .  A
C1987      C1988   1.399       .  A
C1987      N1994   1.439       .  S
C1988      C1989   1.400       .  A
C1988      H1993   1.084       .  S
C1989      C1990   1.409       .  A
C1990      N1991   1.438       .  S
N1991      H1995   1.046       .  S
N1991      H1996   1.045       .  S
N1994      H1997   1.044       .  S
N1994      H1998   1.046       .  S
C1999      C2000   1.402       .  A
C1999      C2004   1.405       .  A
C1999      H2006   1.084       .  S
C2000      C2001   1.411       .  A
C2001      C2002   1.407       .  A
C2001      N2008   1.438       .  S
C2002      C2003   1.401       .  A
C2002      H2007   1.084       .  S
C2003      C2004   1.420       .  A
C2004      N2005   1.439       .  S
N2005      H2009   1.046       .  S
N2005      H2010   1.043       .  S
N2008      H2011   1.046   1_545  S
N2008      H2012   1.046   1_545  S
C2013      C2014   1.397       .  A
C2013      C2018   1.393       .  A
C2013      H2020   1.085       .  S
C2014      C2015   1.412       .  A
C2015      C2016   1.408       .  A
C2015      N2022   1.438       .  S
C2016      C2017   1.405       .  A
C2016      H2021   1.084       .  S
C2017      C2018   1.409       .  A
C2018      N2019   1.428       .  S
N2019      H2023   1.046       .  S
N2019      H2024   1.045       .  S
N2022      H2025   1.046   1_545  S
N2022      H2026   1.046       .  S
C2027      C2028   1.400       .  A
C2027      C2032   1.392       .  A
C2027      H2034   1.084       .  S
C2028      C2029   1.414       .  A
C2029      C2030   1.416       .  A
C2029      N2036   1.437       .  S
C2030      C2031   1.408       .  A
C2030      H2035   1.083       .  S
C2031      C2032   1.417       .  A
C2032      N2033   1.440       .  S
N2033      H2037   1.046       .  S
N2033      H2038   1.045       .  S
N2036      H2039   1.045       .  S
N2036      H2040   1.046       .  S
C2041      C2042   1.400       .  A
C2041      C2046   1.397       .  A
C2041      H2048   1.084       .  S
C2042      C2043   1.410       .  A
C2043      C2044   1.407       .  A
C2043      N2050   1.437       .  S
C2044      C2045   1.403       .  A
C2044      H2049   1.084       .  S
C2045      C2046   1.411       .  A
C2046      N2047   1.439       .  S
N2047      H2051   1.046       .  S
N2047      H2052   1.045       .  S
N2050      H2053   1.044       .  S
N2050      H2054   1.046       .  S
C2055      C2056   1.398       .  A
C2055      C2060   1.407       .  A
C2055      H2062   1.084       .  S
C2056      C2057   1.405       .  A
C2057      C2058   1.398       .  A
C2057      N2064   1.439       .  S
C2058      C2059   1.405       .  A
C2058      H2063   1.083       .  S
C2059      C2060   1.419       .  A
C2060      N2061   1.437       .  S
N2061      H2065   1.046       .  S
N2061      H2066   1.045       .  S
N2064      H2067   1.045   1_554  S
N2064      H2068   1.046   1_554  S
C2069      C2070   1.401       .  A
C2069      C2074   1.390       .  A
C2069      H2076   1.084       .  S
C2070      C2071   1.416       .  A
C2071      C2072   1.414       .  A
C2071      N2078   1.437       .  S
C2072      C2073   1.406       .  A
C2072      H2077   1.083       .  S
C2073      C2074   1.410       .  A
C2074      N2075   1.434       .  S
N2075      H2079   1.046       .  S
N2075      H2080   1.046       .  S
N2078      H2081   1.045       .  S
N2078      H2082   1.046       .  S
C2083      C2084   1.403       .  A
C2083      C2088   1.405       .  A
C2083      H2090   1.084       .  S
C2084      C2085   1.410       .  A
C2085      C2086   1.408       .  A
C2085      N2092   1.437       .  S
C2086      C2087   1.404       .  A
C2086      H2091   1.084       .  S
C2087      C2088   1.408       .  A
C2088      N2089   1.437       .  S
N2089      H2093   1.046       .  S
N2089      H2094   1.045   1_455  S
N2092      H2095   1.045       .  S
N2092      H2096   1.046       .  S
C2097      C2098   1.407       .  A
C2097      C2102   1.411       .  A
C2097      H2104   1.084       .  S
C2098      C2099   1.410       .  A
C2099      C2100   1.403       .  A
C2099      N2106   1.433       .  S
C2100      C2101   1.409       .  A
C2100      H2105   1.084       .  S
C2101      C2102   1.415       .  A
C2102      N2103   1.432       .  S
N2103      H2107   1.046       .  S
N2103      H2108   1.046       .  S
N2106      H2109   1.045       .  S
N2106      H2110   1.046       .  S
C2111      C2112   1.389       .  A
C2111      C2116   1.397       .  A
C2111      H2118   1.085       .  S
C2112      C2113   1.413       .  A
C2113      C2114   1.416       .  A
C2113      N2120   1.437       .  S
C2114      C2115   1.405       .  A
C2114      H2119   1.083       .  S
C2115      C2116   1.414       .  A
C2116      N2117   1.429       .  S
N2117      H2121   1.046       .  S
N2117      H2122   1.042       .  S
N2120      H2123   1.045       .  S
N2120      H2124   1.046       .  S
C2125      C2126   1.406       .  A
C2125      C2130   1.409       .  A
C2125      H2132   1.084       .  S
C2126      C2127   1.415       .  A
C2127      C2128   1.395       .  A
C2127      N2134   1.434       .  S
C2128      C2129   1.408       .  A
C2128      H2133   1.084       .  S
C2129      C2130   1.413       .  A
C2130      N2131   1.432       .  S
N2131      H2135   1.046       .  S
N2131      H2136   1.046       .  S
N2134      H2137   1.046       .  S
N2134      H2138   1.044       .  S
C2139      C2140   1.404       .  A
C2139      C2144   1.399       .  A
C2139      H2146   1.084       .  S
C2140      C2141   1.417       .  A
C2141      C2142   1.408       .  A
C2141      N2148   1.438       .  S
C2142      C2143   1.404       .  A
C2142      H2147   1.083       .  S
C2143      C2144   1.412       .  A
C2144      N2145   1.433       .  S
N2145      H2149   1.046       .  S
N2145      H2150   1.045       .  S
N2148      H2151   1.045       .  S
N2148      H2152   1.046       .  S
C2153      C2154   1.400       .  A
C2153      C2158   1.400       .  A
C2153      H2160   1.085       .  S
C2154      C2155   1.415       .  A
C2155      C2156   1.401       .  A
C2155      N2162   1.440       .  S
C2156      C2157   1.403       .  A
C2156      H2161   1.084       .  S
C2157      C2158   1.417       .  A
C2158      N2159   1.439       .  S
N2159      H2163   1.046       .  S
N2159      H2164   1.041       .  S
N2162      H2165   1.044       .  S
N2162      H2166   1.046       .  S
C2167      C2168   1.407       .  A
C2167      C2172   1.394       .  A
C2167      H2174   1.083       .  S
C2168      C2169   1.417       .  A
C2169      C2170   1.409       .  A
C2169      N2176   1.437       .  S
C2170      C2171   1.401       .  A
C2170      H2175   1.084       .  S
C2171      C2172   1.406       .  A
C2172      N2173   1.439       .  S
N2173      H2177   1.046       .  S
N2173      H2178   1.045       .  S
N2176      H2179   1.045       .  S
N2176      H2180   1.046       .  S
C2181      C2182   1.407       .  A
C2181      C2186   1.397       .  A
C2181      H2188   1.085       .  S
C2182      C2183   1.408       .  A
C2183      C2184   1.415       .  A
C2183      N2190   1.436       .  S
C2184      C2185   1.409       .  A
C2184      H2189   1.084       .  S
C2185      C2186   1.412       .  A
C2186      N2187   1.440       .  S
N2187      H2191   1.046       .  S
N2187      H2192   1.043       .  S
N2190      H2193   1.046       .  S
N2190      H2194   1.046       .  S
C2195      C2196   1.406       .  A
C2195      C2200   1.396       .  A
C2195      H2202   1.082       .  S
C2196      C2197   1.419       .  A
C2197      C2198   1.411       .  A
C2197      N2204   1.437       .  S
C2198      C2199   1.401       .  A
C2198      H2203   1.084       .  S
C2199      C2200   1.404       .  A
C2200      N2201   1.437       .  S
N2201      H2205   1.046       .  S
N2201      H2206   1.044       .  S
N2204      H2207   1.046       .  S
N2204      H2208   1.046       .  S
C2209      C2210   1.403       .  A
C2209      C2214   1.407       .  A
C2209      H2216   1.084       .  S
C2210      C2211   1.409       .  A
C2211      C2212   1.397       .  A
C2211      N2218   1.439       .  S
C2212      C2213   1.399       .  A
C2212      H2217   1.083       .  S
C2213      C2214   1.410       .  A
C2214      N2215   1.438       .  S
N2215      H2219   1.046       .  S
N2215      H2220   1.044       .  S
N2218      H2221   1.045       .  S
N2218      H2222   1.046       .  S
C2223      C2224   1.399       .  A
C2223      C2228   1.401       .  A
C2223      H2230   1.081       .  S
C2224      C2225   1.403       .  A
C2225      C2226   1.401       .  A
C2225      N2232   1.438       .  S
C2226      C2227   1.406       .  A
C2226      H2231   1.083       .  S
C2227      C2228   1.420       .  A
C2228      N2229   1.440       .  S
N2229      H2233   1.046       .  S
N2229      H2234   1.041       .  S
N2232      H2235   1.046       .  S
N2232      H2236   1.046       .  S
C2237      C2238   1.406       .  A
C2237      C2242   1.414       .  A
C2237      H2244   1.084       .  S
C2238      C2239   1.413       .  A
C2239      C2240   1.390       .  A
C2239      N2246   1.438       .  S
C2240      C2241   1.403       .  A
C2240      H2245   1.084       .  S
C2241      C2242   1.415       .  A
C2242      N2243   1.438       .  S
N2243      H2247   1.046       .  S
N2243      H2248   1.046       .  S
N2246      H2249   1.040   1_455  S
N2246      H2250   1.045   1_455  S
C2251      C2252   1.401       .  A
C2251      C2256   1.404       .  A
C2251      H2258   1.084       .  S
C2252      C2253   1.415       .  A
C2253      C2254   1.395       .  A
C2253      N2260   1.436       .  S
C2254      C2255   1.400       .  A
C2254      H2259   1.085       .  S
C2255      C2256   1.422       .  A
C2256      N2257   1.439       .  S
N2257      H2261   1.046       .  S
N2257      H2262   1.040       .  S
N2260      H2263   1.041       .  S
N2260      H2264   1.045       .  S
C2265      C2266   1.411       .  A
C2265      C2270   1.400       .  A
C2265      H2272   1.083       .  S
C2266      C2267   1.436       .  A
C2267      C2268   1.408       .  A
C2267      N2274   1.440       .  S
C2268      C2269   1.397       .  A
C2268      H2273   1.085       .  S
C2269      C2270   1.402       .  A
C2270      N2271   1.438       .  S
N2271      H2275   1.046       .  S
N2271      H2276   1.045       .  S
N2274      H2277   1.034       .  S
N2274      H2278   1.046       .  S
C2279      C2280   1.402       .  A
C2279      C2284   1.395       .  A
C2279      H2286   1.081       .  S
C2280      C2281   1.414       .  A
C2281      C2282   1.412       .  A
C2281      N2288   1.437       .  S
C2282      C2283   1.406       .  A
C2282      H2287   1.083       .  S
C2283      C2284   1.409       .  A
C2284      N2285   1.439       .  S
N2285      H2289   1.046       .  S
N2285      H2290   1.046       .  S
N2288      H2291   1.046   1_455  S
N2288      H2292   1.046       .  S
C2293      C2294   1.402       .  A
C2293      C2298   1.399       .  A
C2293      H2300   1.082       .  S
C2294      C2295   1.424       .  A
C2295      C2296   1.408       .  A
C2295      N2302   1.438       .  S
C2296      C2297   1.402       .  A
C2296      H2301   1.084       .  S
C2297      C2298   1.405       .  A
C2298      N2299   1.436       .  S
N2299      H2303   1.046       .  S
N2299      H2304   1.046       .  S
N2302      H2305   1.039       .  S
N2302      H2306   1.045       .  S
C2307      C2308   1.409       .  A
C2307      C2312   1.412       .  A
C2307      H2314   1.083       .  S
C2308      C2309   1.421       .  A
C2309      C2310   1.399       .  A
C2309      N2316   1.438       .  S
C2310      C2311   1.395       .  A
C2310      H2315   1.084       .  S
C2311      C2312   1.408       .  A
C2312      N2313   1.437       .  S
N2313      H2317   1.046       .  S
N2313      H2318   1.046       .  S
N2316      H2319   1.044       .  S
N2316      H2320   1.046       .  S
C2321      C2322   1.405       .  A
C2321      C2326   1.405       .  A
C2321      H2328   1.084       .  S
C2322      C2323   1.409       .  A
C2323      C2324   1.406       .  A
C2323      N2330   1.437       .  S
C2324      C2325   1.402       .  A
C2324      H2329   1.083       .  S
C2325      C2326   1.407       .  A
C2326      N2327   1.438       .  S
N2327      H2331   1.046       .  S
N2327      H2332   1.045       .  S
N2330      H2333   1.045       .  S
N2330      H2334   1.046       .  S
C2335      C2336   1.404       .  A
C2335      C2340   1.406       .  A
C2335      H2342   1.084       .  S
C2336      C2337   1.411       .  A
C2337      C2338   1.400       .  A
C2337      N2344   1.439       .  S
C2338      C2339   1.403       .  A
C2338      H2343   1.084       .  S
C2339      C2340   1.422       .  A
C2340      N2341   1.439       .  S
N2341      H2345   1.046       .  S
N2341      H2346   1.041       .  S
N2344      H2347   1.045       .  S
N2344      H2348   1.046       .  S
C2349      C2350   1.407       .  A
C2349      C2354   1.396       .  A
C2349      H2356   1.084       .  S
C2350      C2351   1.413       .  A
C2351      C2352   1.409       .  A
C2351      N2358   1.437       .  S
C2352      C2353   1.403       .  A
C2352      H2357   1.084       .  S
C2353      C2354   1.403       .  A
C2354      N2355   1.438       .  S
N2355      H2359   1.046       .  S
N2355      H2360   1.043       .  S
N2358      H2361   1.045       .  S
N2358      H2362   1.046       .  S
C2363      C2364   1.399       .  A
C2363      C2368   1.392       .  A
C2363      H2370   1.084       .  S
C2364      C2365   1.412       .  A
C2365      C2366   1.411       .  A
C2365      N2372   1.438       .  S
C2366      C2367   1.405       .  A
C2366      H2371   1.084       .  S
C2367      C2368   1.414       .  A
C2368      N2369   1.435       .  S
N2369      H2373   1.045       .  S
N2369      H2374   1.043       .  S
N2372      H2375   1.045       .  S
N2372      H2376   1.046       .  S
C2377      C2378   1.405       .  A
C2377      C2382   1.409       .  A
C2377      H2384   1.084       .  S
C2378      C2379   1.418       .  A
C2379      C2380   1.390       .  A
C2379      N2386   1.438       .  S
C2380      C2381   1.395       .  A
C2380      H2385   1.085       .  S
C2381      C2382   1.416       .  A
C2382      N2383   1.438       .  S
N2383      H2387   1.046       .  S
N2383      H2388   1.043       .  S
N2386      H2389   1.039       .  S
N2386      H2390   1.045       .  S
C2391      C2392   1.403       .  A
C2391      C2396   1.397       .  A
C2391      H2398   1.084       .  S
C2392      C2393   1.413       .  A
C2393      C2394   1.410       .  A
C2393      N2400   1.437       .  S
C2394      C2395   1.406       .  A
C2394      H2399   1.084       .  S
C2395      C2396   1.411       .  A
C2396      N2397   1.438       .  S
N2397      H2401   1.046       .  S
N2397      H2402   1.045       .  S
N2400      H2403   1.046       .  S
N2400      H2404   1.046       .  S
C2405      C2406   1.407       .  A
C2405      C2410   1.413       .  A
C2405      H2412   1.083       .  S
C2406      C2407   1.413       .  A
C2407      C2408   1.393       .  A
C2407      N2414   1.440       .  S
C2408      C2409   1.403       .  A
C2408      H2413   1.084       .  S
C2409      C2410   1.414       .  A
C2410      N2411   1.437       .  S
N2411      H2415   1.046       .  S
N2411      H2416   1.045       .  S
N2414      H2417   1.045       .  S
N2414      H2418   1.046       .  S
C2419      C2420   1.397       .  A
C2419      C2424   1.393       .  A
C2419      H2426   1.084       .  S
C2420      C2421   1.409       .  A
C2421      C2422   1.410       .  A
C2421      N2428   1.437       .  S
C2422      C2423   1.405       .  A
C2422      H2427   1.084       .  S
C2423      C2424   1.415       .  A
C2424      N2425   1.438       .  S
N2425      H2429   1.045       .  S
N2425      H2430   1.041       .  S
N2428      H2431   1.045       .  S
N2428      H2432   1.046       .  S
C2433      C2434   1.401       .  A
C2433      C2438   1.392       .  A
C2433      H2440   1.084       .  S
C2434      C2435   1.414       .  A
C2435      C2436   1.412       .  A
C2435      N2442   1.437       .  S
C2436      C2437   1.406       .  A
C2436      H2441   1.084       .  S
C2437      C2438   1.408       .  A
C2438      N2439   1.434       .  S
N2439      H2443   1.046       .  S
N2439      H2444   1.046       .  S
N2442      H2445   1.045       .  S
N2442      H2446   1.046       .  S
C2447      C2448   1.406       .  A
C2447      C2452   1.403       .  A
C2447      H2454   1.084       .  S
C2448      C2449   1.415       .  A
C2449      C2450   1.407       .  A
C2449      N2456   1.438       .  S
C2450      C2451   1.406       .  A
C2450      H2455   1.084       .  S
C2451      C2452   1.406       .  A
C2452      N2453   1.439       .  S
N2453      H2457   1.046       .  S
N2453      H2458   1.045       .  S
N2456      H2459   1.043       .  S
N2456      H2460   1.046       .  S
C2461      C2462   1.403       .  A
C2461      C2466   1.400       .  A
C2461      H2468   1.083       .  S
C2462      C2463   1.409       .  A
C2463      C2464   1.405       .  A
C2463      N2470   1.436       .  S
C2464      C2465   1.402       .  A
C2464      H2469   1.084       .  S
C2465      C2466   1.411       .  A
C2466      N2467   1.431       .  S
N2467      H2471   1.045       .  S
N2467      H2472   1.044       .  S
N2470      H2473   1.044   1_455  S
N2470      H2474   1.046       .  S
C2475      C2476   1.403       .  A
C2475      C2480   1.406       .  A
C2475      H2482   1.084       .  S
C2476      C2477   1.411       .  A
C2477      C2478   1.401       .  A
C2477      N2484   1.437       .  S
C2478      C2479   1.398       .  A
C2478      H2483   1.081       .  S
C2479      C2480   1.419       .  A
C2480      N2481   1.438       .  S
N2481      H2485   1.045       .  S
N2481      H2486   1.043       .  S
N2484      H2487   1.046   1_455  S
N2484      H2488   1.046       .  S
C2489      C2490   1.402       .  A
C2489      C2494   1.393       .  A
C2489      H2496   1.081       .  S
C2490      C2491   1.429       .  A
C2491      C2492   1.409       .  A
C2491      N2498   1.438       .  S
C2492      C2493   1.404       .  A
C2492      H2497   1.084       .  S
C2493      C2494   1.408       .  A
C2494      N2495   1.436       .  S
N2495      H2499   1.046       .  S
N2495      H2500   1.046       .  S
N2498      H2501   1.037       .  S
N2498      H2502   1.045       .  S
C2503      C2504   1.393       .  A
C2503      C2508   1.391       .  A
C2503      H2510   1.083       .  S
C2504      C2505   1.412       .  A
C2505      C2506   1.411       .  A
C2505      N2512   1.434       .  S
C2506      C2507   1.405       .  A
C2506      H2511   1.084       .  S
C2507      C2508   1.422       .  A
C2508      N2509   1.434       .  S
N2509      H2513   1.043       .  S
N2509      H2514   1.046       .  S
N2512      H2515   1.045       .  S
N2512      H2516   1.046       .  S
C2517      C2518   1.400       .  A
C2517      C2522   1.392       .  A
C2517      H2524   1.085       .  S
C2518      C2519   1.409       .  A
C2519      C2520   1.408       .  A
C2519      N2526   1.437       .  S
C2520      C2521   1.406       .  A
C2520      H2525   1.084       .  S
C2521      C2522   1.414       .  A
C2522      N2523   1.438       .  S
N2523      H2527   1.045       .  S
N2523      H2528   1.043       .  S
N2526      H2529   1.045       .  S
N2526      H2530   1.046       .  S
C2531      C2532   1.409       .  A
C2531      C2536   1.414       .  A
C2531      H2538   1.084       .  S
C2532      C2533   1.406       .  A
C2533      C2534   1.401       .  A
C2533      N2540   1.433       .  S
C2534      C2535   1.404       .  A
C2534      H2539   1.081       .  S
C2535      C2536   1.408       .  A
C2536      N2537   1.437       .  S
N2537      H2541   1.046       .  S
N2537      H2542   1.045       .  S
N2540      H2543   1.046       .  S
N2540      H2544   1.046       .  S
C2545      C2546   1.400       .  A
C2545      C2550   1.397       .  A
C2545      H2552   1.085       .  S
C2546      C2547   1.418       .  A
C2547      C2548   1.409       .  A
C2547      N2554   1.438       .  S
C2548      C2549   1.406       .  A
C2548      H2553   1.084       .  S
C2549      C2550   1.417       .  A
C2550      N2551   1.440       .  S
N2551      H2555   1.046       .  S
N2551      H2556   1.042       .  S
N2554      H2557   1.043       .  S
N2554      H2558   1.046       .  S
C2559      C2560   1.404       .  A
C2559      C2564   1.408       .  A
C2559      H2566   1.083       .  S
C2560      C2561   1.415       .  A
C2561      C2562   1.407       .  A
C2561      N2568   1.438       .  S
C2562      C2563   1.402       .  A
C2562      H2567   1.084       .  S
C2563      C2564   1.414       .  A
C2564      N2565   1.438       .  S
N2565      H2569   1.046       .  S
N2565      H2570   1.045       .  S
N2568      H2571   1.044       .  S
N2568      H2572   1.046       .  S
C2573      C2574   1.405       .  A
C2573      C2578   1.411       .  A
C2573      H2580   1.083       .  S
C2574      C2575   1.415       .  A
C2575      C2576   1.395       .  A
C2575      N2582   1.439       .  S
C2576      C2577   1.400       .  A
C2576      H2581   1.085       .  S
C2577      C2578   1.410       .  A
C2578      N2579   1.437       .  S
N2579      H2583   1.046       .  S
N2579      H2584   1.045       .  S
N2582      H2585   1.043       .  S
N2582      H2586   1.045       .  S
C2587      C2588   1.402       .  A
C2587      C2592   1.405       .  A
C2587      H2594   1.084       .  S
C2588      C2589   1.408       .  A
C2589      C2590   1.404       .  A
C2589      N2596   1.438       .  S
C2590      C2591   1.401       .  A
C2590      H2595   1.084       .  S
C2591      C2592   1.408       .  A
C2592      N2593   1.438       .  S
N2593      H2597   1.046       .  S
N2593      H2598   1.046       .  S
N2596      H2599   1.046       .  S
N2596      H2600   1.046       .  S
C2601      C2602   1.402       .  A
C2601      C2606   1.398       .  A
C2601      H2608   1.084       .  S
C2602      C2603   1.421       .  A
C2603      C2604   1.406       .  A
C2603      N2610   1.439       .  S
C2604      C2605   1.404       .  A
C2604      H2609   1.084       .  S
C2605      C2606   1.410       .  A
C2606      N2607   1.438       .  S
N2607      H2611   1.046       .  S
N2607      H2612   1.045       .  S
N2610      H2613   1.041       .  S
N2610      H2614   1.045       .  S
C2615      C2616   1.408       .  A
C2615      C2620   1.412       .  A
C2615      H2622   1.083       .  S
C2616      C2617   1.417       .  A
C2617      C2618   1.393       .  A
C2617      N2624   1.433       .  S
C2618      C2619   1.393       .  A
C2618      H2623   1.085       .  S
C2619      C2620   1.409       .  A
C2620      N2621   1.437       .  S
N2621      H2625   1.046       .  S
N2621      H2626   1.045       .  S
N2624      H2627   1.046       .  S
N2624      H2628   1.045       .  S
C2629      C2630   1.402       .  A
C2629      C2634   1.405       .  A
C2629      H2636   1.084       .  S
C2630      C2631   1.412       .  A
C2631      C2632   1.389       .  A
C2631      N2638   1.430       .  S
C2632      C2633   1.399       .  A
C2632      H2637   1.085       .  S
C2633      C2634   1.423       .  A
C2634      N2635   1.439       .  S
N2635      H2639   1.046       .  S
N2635      H2640   1.040       .  S
N2638      H2641   1.044       .  S
N2638      H2642   1.043       .  S
C2643      C2644   1.403       .  A
C2643      C2648   1.395       .  A
C2643      H2650   1.084       .  S
C2644      C2645   1.407       .  A
C2645      C2646   1.411       .  A
C2645      N2652   1.437       .  S
C2646      C2647   1.406       .  A
C2646      H2651   1.084       .  S
C2647      C2648   1.407       .  A
C2648      N2649   1.433       .  S
N2649      H2653   1.045       .  S
N2649      H2654   1.046       .  S
N2652      H2655   1.046       .  S
N2652      H2656   1.046       .  S
C2657      C2658   1.408       .  A
C2657      C2662   1.394       .  A
C2657      H2664   1.083       .  S
C2658      C2659   1.421       .  A
C2659      C2660   1.406       .  A
C2659      N2666   1.432       .  S
C2660      C2661   1.402       .  A
C2660      H2665   1.084       .  S
C2661      C2662   1.405       .  A
C2662      N2663   1.439       .  S
N2663      H2667   1.046       .  S
N2663      H2668   1.045       .  S
N2666      H2669   1.044       .  S
N2666      H2670   1.045       .  S
C2671      C2672   1.406       .  A
C2671      C2676   1.413       .  A
C2671      H2678   1.084       .  S
C2672      C2673   1.411       .  A
C2673      C2674   1.397       .  A
C2673      N2680   1.439       .  S
C2674      C2675   1.400       .  A
C2674      H2679   1.084       .  S
C2675      C2676   1.411       .  A
C2676      N2677   1.437       .  S
N2677      H2681   1.046       .  S
N2677      H2682   1.045       .  S
N2680      H2683   1.045       .  S
N2680      H2684   1.046       .  S
C2685      C2686   1.406       .  A
C2685      C2690   1.409       .  A
C2685      H2692   1.084       .  S
C2686      C2687   1.419       .  A
C2687      C2688   1.400       .  A
C2687      N2694   1.434       .  S
C2688      C2689   1.399       .  A
C2688      H2693   1.084       .  S
C2689      C2690   1.408       .  A
C2690      N2691   1.437       .  S
N2691      H2695   1.046       .  S
N2691      H2696   1.046       .  S
N2694      H2697   1.046       .  S
N2694      H2698   1.044       .  S
C2699      C2700   1.408       .  A
C2699      C2704   1.414       .  A
C2699      H2706   1.084       .  S
C2700      C2701   1.410       .  A
C2701      C2702   1.388       .  A
C2701      N2708   1.433       .  S
C2702      C2703   1.402       .  A
C2702      H2707   1.082       .  S
C2703      C2704   1.414       .  A
C2704      N2705   1.435       .  S
N2705      H2709   1.046       .  S
N2705      H2710   1.045       .  S
N2708      H2711   1.046       .  S
N2708      H2712   1.045       .  S
C2713      C2714   1.399       .  A
C2713      C2718   1.394       .  A
C2713      H2720   1.084       .  S
C2714      C2715   1.414       .  A
C2715      C2716   1.413       .  A
C2715      N2722   1.437       .  S
C2716      C2717   1.406       .  A
C2716      H2721   1.083       .  S
C2717      C2718   1.413       .  A
C2718      N2719   1.439       .  S
N2719      H2723   1.046       .  S
N2719      H2724   1.043       .  S
N2722      H2725   1.046       .  S
N2722      H2726   1.046       .  S
C2727      C2728   1.402       .  A
C2727      C2732   1.407       .  A
C2727      H2734   1.084       .  S
C2728      C2729   1.406       .  A
C2729      C2730   1.404       .  A
C2729      N2736   1.438       .  S
C2730      C2731   1.406       .  A
C2730      H2735   1.084       .  S
C2731      C2732   1.411       .  A
C2732      N2733   1.431       .  S
N2733      H2737   1.046       .  S
N2733      H2738   1.045       .  S
N2736      H2739   1.045       .  S
N2736      H2740   1.046       .  S
C2741      C2742   1.401       .  A
C2741      C2746   1.404       .  A
C2741      H2748   1.084       .  S
C2742      C2743   1.414       .  A
C2743      C2744   1.400       .  A
C2743      N2750   1.440       .  S
C2744      C2745   1.405       .  A
C2744      H2749   1.084       .  S
C2745      C2746   1.412       .  A
C2746      N2747   1.437       .  S
N2747      H2751   1.046       .  S
N2747      H2752   1.045       .  S
N2750      H2753   1.043       .  S
N2750      H2754   1.046       .  S
C2755      C2756   1.399       .  A
C2755      C2760   1.399       .  A
C2755      H2762   1.084       .  S
C2756      C2757   1.411       .  A
C2757      C2758   1.412       .  A
C2757      N2764   1.437       .  S
C2758      C2759   1.404       .  A
C2758      H2763   1.083       .  S
C2759      C2760   1.411       .  A
C2760      N2761   1.439       .  S
N2761      H2765   1.046       .  S
N2761      H2766   1.045       .  S
N2764      H2767   1.045       .  S
N2764      H2768   1.046       .  S
C2769      C2770   1.401       .  A
C2769      C2774   1.399       .  A
C2769      H2776   1.084       .  S
C2770      C2771   1.411       .  A
C2771      C2772   1.407       .  A
C2771      N2778   1.438       .  S
C2772      C2773   1.403       .  A
C2772      H2777   1.084       .  S
C2773      C2774   1.417       .  A
C2774      N2775   1.439       .  S
N2775      H2779   1.045       .  S
N2775      H2780   1.044       .  S
N2778      H2781   1.045       .  S
N2778      H2782   1.046       .  S
C2783      C2784   1.400       .  A
C2783      C2788   1.401       .  A
C2783      H2790   1.085       .  S
C2784      C2785   1.414       .  A
C2785      C2786   1.402       .  A
C2785      N2792   1.439       .  S
C2786      C2787   1.406       .  A
C2786      H2791   1.085       .  S
C2787      C2788   1.420       .  A
C2788      N2789   1.439       .  S
N2789      H2793   1.045       .  S
N2789      H2794   1.040       .  S
N2792      H2795   1.043       .  S
N2792      H2796   1.046       .  S
C2797      C2798   1.398       .  A
C2797      C2802   1.392       .  A
C2797      H2804   1.084       .  S
C2798      C2799   1.414       .  A
C2799      C2800   1.405       .  A
C2799      N2806   1.438       .  S
C2800      C2801   1.405       .  A
C2800      H2805   1.083       .  S
C2801      C2802   1.414       .  A
C2802      N2803   1.439       .  S
N2803      H2807   1.046       .  S
N2803      H2808   1.041       .  S
N2806      H2809   1.043       .  S
N2806      H2810   1.046       .  S
C2811      C2812   1.400       .  A
C2811      C2816   1.392       .  A
C2811      H2818   1.084       .  S
C2812      C2813   1.415       .  A
C2813      C2814   1.411       .  A
C2813      N2820   1.437       .  S
C2814      C2815   1.405       .  A
C2814      H2819   1.084       .  S
C2815      C2816   1.409       .  A
C2816      N2817   1.434       .  S
N2817      H2821   1.046       .  S
N2817      H2822   1.046       .  S
N2820      H2823   1.046       .  S
N2820      H2824   1.046       .  S
C2825      C2826   1.403       .  A
C2825      C2830   1.408       .  A
C2825      H2832   1.084       .  S
C2826      C2827   1.415       .  A
C2827      C2828   1.405       .  A
C2827      N2834   1.438       .  S
C2828      C2829   1.398       .  A
C2828      H2833   1.084       .  S
C2829      C2830   1.410       .  A
C2830      N2831   1.437       .  S
N2831      H2835   1.046       .  S
N2831      H2836   1.045       .  S
N2834      H2837   1.044       .  S
N2834      H2838   1.046       .  S
C2839      C2840   1.402       .  A
C2839      C2844   1.400       .  A
C2839      H2846   1.083       .  S
C2840      C2841   1.412       .  A
C2841      C2842   1.409       .  A
C2841      N2848   1.432       .  S
C2842      C2843   1.406       .  A
C2842      H2847   1.084       .  S
C2843      C2844   1.413       .  A
C2844      N2845   1.439   1_545  S
N2845      H2849   1.046       .  S
N2845      H2850   1.046       .  S
N2848      H2851   1.045       .  S
N2848      H2852   1.046       .  S
C2853      C2854   1.402       .  A
C2853      C2858   1.409       .  A
C2853      H2860   1.084       .  S
C2854      C2855   1.408       .  A
C2855      C2856   1.393       .  A
C2855      N2862   1.440       .  S
C2856      C2857   1.404       .  A
C2856      H2861   1.083       .  S
C2857      C2858   1.417       .  A
C2858      N2859   1.437       .  S
N2859      H2863   1.046       .  S
N2859      H2864   1.045       .  S
N2862      H2865   1.046       .  S
N2862      H2866   1.046       .  S
C2867      C2868   1.408       .  A
C2867      C2872   1.396       .  A
C2867      H2874   1.082       .  S
C2868      C2869   1.416       .  A
C2869      C2870   1.411       .  A
C2869      N2876   1.437       .  S
C2870      C2871   1.403       .  A
C2870      H2875   1.084       .  S
C2871      C2872   1.406       .  A
C2872      N2873   1.438       .  S
N2873      H2877   1.046       .  S
N2873      H2878   1.045       .  S
N2876      H2879   1.046       .  S
N2876      H2880   1.046       .  S
C2881      C2882   1.398       .  A
C2881      C2886   1.397       .  A
C2881      H2888   1.084       .  S
C2882      C2883   1.409       .  A
C2883      C2884   1.414       .  A
C2883      N2890   1.437       .  S
C2884      C2885   1.411       .  A
C2884      H2889   1.083       .  S
C2885      C2886   1.421       .  A
C2886      N2887   1.440       .  S
N2887      H2891   1.046       .  S
N2887      H2892   1.046       .  S
N2890      H2893   1.046       .  S
N2890      H2894   1.046       .  S
C2895      C2896   1.402       .  A
C2895      C2900   1.403       .  A
C2895      H2902   1.084       .  S
C2896      C2897   1.414       .  A
C2897      C2898   1.407       .  A
C2897      N2904   1.438       .  S
C2898      C2899   1.404       .  A
C2898      H2903   1.084       .  S
C2899      C2900   1.413       .  A
C2900      N2901   1.438       .  S
N2901      H2905   1.046       .  S
N2901      H2906   1.046       .  S
N2904      H2907   1.046       .  S
N2904      H2908   1.046       .  S
C2909      C2910   1.406       .  A
C2909      C2914   1.409       .  A
C2909      H2916   1.083       .  S
C2910      C2911   1.410       .  A
C2911      C2912   1.395       .  A
C2911      N2918   1.439       .  S
C2912      C2913   1.400       .  A
C2912      H2917   1.084       .  S
C2913      C2914   1.411       .  A
C2914      N2915   1.437       .  S
N2915      H2919   1.046       .  S
N2915      H2920   1.046       .  S
N2918      H2921   1.045       .  S
N2918      H2922   1.046       .  S
C2923      C2924   1.404       .  A
C2923      C2928   1.404       .  A
C2923      H2930   1.083       .  S
C2924      C2925   1.415       .  A
C2925      C2926   1.398       .  A
C2925      N2932   1.439       .  S
C2926      C2927   1.401       .  A
C2926      H2931   1.085       .  S
C2927      C2928   1.415       .  A
C2928      N2929   1.437       .  S
N2929      H2933   1.045       .  S
N2929      H2934   1.042       .  S
N2932      H2935   1.042       .  S
N2932      H2936   1.046       .  S
C2937      C2938   1.405       .  A
C2937      C2942   1.398       .  A
C2937      H2944   1.084       .  S
C2938      C2939   1.416       .  A
C2939      C2940   1.407       .  A
C2939      N2946   1.438       .  S
C2940      C2941   1.400       .  A
C2940      H2945   1.082       .  S
C2941      C2942   1.404       .  A
C2942      N2943   1.438       .  S
N2943      H2947   1.046       .  S
N2943      H2948   1.045       .  S
N2946      H2949   1.045       .  S
N2946      H2950   1.046       .  S
C2951      C2952   1.398       .  A
C2951      C2956   1.402       .  A
C2951      H2958   1.084       .  S
C2952      C2953   1.410       .  A
C2953      C2954   1.408       .  A
C2953      N2960   1.438       .  S
C2954      C2955   1.403       .  A
C2954      H2959   1.084       .  S
C2955      C2956   1.406       .  A
C2956      N2957   1.433       .  S
N2957      H2961   1.045       .  S
N2957      H2962   1.046       .  S
N2960      H2963   1.046       .  S
N2960      H2964   1.046       .  S
C2965      C2966   1.403       .  A
C2965      C2970   1.398       .  A
C2965      H2972   1.083       .  S
C2966      C2967   1.422       .  A
C2967      C2968   1.406       .  A
C2967      N2974   1.440       .  S
C2968      C2969   1.401       .  A
C2968      H2973   1.080       .  S
C2969      C2970   1.406       .  A
C2970      N2971   1.438       .  S
N2971      H2975   1.046       .  S
N2971      H2976   1.046       .  S
N2974      H2977   1.040       .  S
N2974      H2978   1.046       .  S
C2979      C2980   1.409       .  A
C2979      C2984   1.398       .  A
C2979      H2986   1.083       .  S
C2980      C2981   1.419       .  A
C2981      C2982   1.414       .  A
C2981      N2988   1.437       .  S
C2982      C2983   1.404       .  A
C2982      H2987   1.084       .  S
C2983      C2984   1.405       .  A
C2984      N2985   1.438       .  S
N2985      H2989   1.046       .  S
N2985      H2990   1.046       .  S
N2988      H2991   1.045       .  S
N2988      H2992   1.046       .  S
C2993      C2994   1.408       .  A
C2993      C2998   1.395       .  A
C2993      H3000   1.083       .  S
C2994      C2995   1.417       .  A
C2995      C2996   1.409       .  A
C2995      N3002   1.437       .  S
C2996      C2997   1.401       .  A
C2996      H3001   1.084       .  S
C2997      C2998   1.403       .  A
C2998      N2999   1.438       .  S
N2999      H3003   1.046       .  S
N2999      H3004   1.046       .  S
N3002      H3005   1.046       .  S
N3002      H3006   1.046       .  S
C3007      C3008   1.406       .  A
C3007      C3012   1.410       .  A
C3007      H3014   1.084       .  S
C3008      C3009   1.414       .  A
C3009      C3010   1.404       .  A
C3009      N3016   1.433       .  S
C3010      C3011   1.403       .  A
C3010      H3015   1.084       .  S
C3011      C3012   1.414       .  A
C3012      N3013   1.432       .  S
N3013      H3017   1.046       .  S
N3013      H3018   1.046       .  S
N3016      H3019   1.046       .  S
N3016      H3020   1.046       .  S
C3021      C3022   1.403       .  A
C3021      C3026   1.413       .  A
C3021      H3028   1.084       .  S
C3022      C3023   1.407       .  A
C3023      C3024   1.390       .  A
C3023      N3030   1.431       .  S
C3024      C3025   1.406       .  A
C3024      H3029   1.084       .  S
C3025      C3026   1.417       .  A
C3026      N3027   1.437       .  S
N3027      H3031   1.046       .  S
N3027      H3032   1.046       .  S
N3030      H3033   1.045       .  S
N3030      H3034   1.044       .  S
C3035      C3036   1.404       .  A
C3035      C3040   1.410       .  A
C3035      H3042   1.083       .  S
C3036      C3037   1.414       .  A
C3037      C3038   1.399       .  A
C3037      N3044   1.433       .  S
C3038      C3039   1.403       .  A
C3038      H3043   1.084       .  S
C3039      C3040   1.419       .  A
C3040      N3041   1.438       .  S
N3041      H3045   1.046       .  S
N3041      H3046   1.045       .  S
N3044      H3047   1.046       .  S
N3044      H3048   1.046       .  S
C3049      C3050   1.403       .  A
C3049      C3054   1.408       .  A
C3049      H3056   1.084       .  S
C3050      C3051   1.406       .  A
C3051      C3052   1.400       .  A
C3051      N3058   1.439       .  S
C3052      C3053   1.403       .  A
C3052      H3057   1.084       .  S
C3053      C3054   1.411       .  A
C3054      N3055   1.438       .  S
N3055      H3059   1.046       .  S
N3055      H3060   1.045       .  S
N3058      H3061   1.045       .  S
N3058      H3062   1.046       .  S
C3063      C3064   1.405       .  A
C3063      C3068   1.397       .  A
C3063      H3070   1.083       .  S
C3064      C3065   1.418       .  A
C3065      C3066   1.408       .  A
C3065      N3072   1.432       .  S
C3066      C3067   1.400       .  A
C3066      H3071   1.084       .  S
C3067      C3068   1.406       .  A
C3068      N3069   1.439       .  S
N3069      H3073   1.046       .  S
N3069      H3074   1.045       .  S
N3072      H3075   1.045       .  S
N3072      H3076   1.046       .  S
C3077      C3078   1.393       .  A
C3077      C3082   1.390       .  A
C3077      H3084   1.084       .  S
C3078      C3079   1.410       .  A
C3079      C3080   1.410       .  A
C3079      N3086   1.436       .  S
C3080      C3081   1.407       .  A
C3080      H3085   1.084       .  S
C3081      C3082   1.420       .  A
C3082      N3083   1.430       .  S
N3083      H3087   1.044       .  S
N3083      H3088   1.044       .  S
N3086      H3089   1.045       .  S
N3086      H3090   1.046       .  S
C3091      C3092   1.403       .  A
C3091      C3096   1.406       .  A
C3091      H3098   1.084       .  S
C3092      C3093   1.413       .  A
C3093      C3094   1.404       .  A
C3093      N3100   1.438       .  S
C3094      C3095   1.399       .  A
C3094      H3099   1.084       .  S
C3095      C3096   1.418       .  A
C3096      N3097   1.438       .  S
N3097      H3101   1.045       .  S
N3097      H3102   1.043       .  S
N3100      H3103   1.046       .  S
N3100      H3104   1.046       .  S
C3105      C3106   1.405       .  A
C3105      C3110   1.390       .  A
C3105      H3112   1.084       .  S
C3106      C3107   1.417       .  A
C3107      C3108   1.415       .  A
C3107      N3114   1.437       .  S
C3108      C3109   1.406       .  A
C3108      H3113   1.083       .  S
C3109      C3110   1.405       .  A
C3110      N3111   1.434       .  S
N3111      H3115   1.046       .  S
N3111      H3116   1.046       .  S
N3114      H3117   1.045       .  S
N3114      H3118   1.046       .  S
C3119      C3120   1.406       .  A
C3119      C3124   1.412       .  A
C3119      H3126   1.083       .  S
C3120      C3121   1.411       .  A
C3121      C3122   1.395       .  A
C3121      N3128   1.439       .  S
C3122      C3123   1.403       .  A
C3122      H3127   1.084       .  S
C3123      C3124   1.413       .  A
C3124      N3125   1.437       .  S
N3125      H3129   1.046       .  S
N3125      H3130   1.046       .  S
N3128      H3131   1.046       .  S
N3128      H3132   1.046       .  S
C3133      C3134   1.398       .  A
C3133      C3138   1.402       .  A
C3133      H3140   1.084       .  S
C3134      C3135   1.411       .  A
C3135      C3136   1.408       .  A
C3135      N3142   1.438       .  S
C3136      C3137   1.403       .  A
C3136      H3141   1.084       .  S
C3137      C3138   1.412       .  A
C3138      N3139   1.438       .  S
N3139      H3143   1.046       .  S
N3139      H3144   1.046       .  S
N3142      H3145   1.045       .  S
N3142      H3146   1.046       .  S
C3147      C3148   1.402       .  A
C3147      C3152   1.404       .  A
C3147      H3154   1.084       .  S
C3148      C3149   1.415       .  A
C3149      C3150   1.399       .  A
C3149      N3156   1.437       .  S
C3150      C3151   1.399       .  A
C3150      H3155   1.085       .  S
C3151      C3152   1.417       .  A
C3152      N3153   1.439       .  S
N3153      H3157   1.046       .  S
N3153      H3158   1.043       .  S
N3156      H3159   1.043       .  S
N3156      H3160   1.044       .  S
C3161      C3162   1.405       .  A
C3161      C3166   1.405       .  A
C3161      H3168   1.084       .  S
C3162      C3163   1.411       .  A
C3163      C3164   1.392       .  A
C3163      N3170   1.438       .  S
C3164      C3165   1.396       .  A
C3164      H3169   1.078       .  S
C3165      C3166   1.414       .  A
C3166      N3167   1.438       .  S
N3167      H3171   1.045       .  S
N3167      H3172   1.044       .  S
N3170      H3173   1.042       .  S
N3170      H3174   1.045       .  S
C3175      C3176   1.401       .  A
C3175      C3180   1.401       .  A
C3175      H3182   1.084       .  S
C3176      C3177   1.419       .  A
C3177      C3178   1.404       .  A
C3177      N3184   1.439       .  S
C3178      C3179   1.401       .  A
C3178      H3183   1.084       .  S
C3179      C3180   1.407       .  A
C3180      N3181   1.437       .  S
N3181      H3185   1.046       .  S
N3181      H3186   1.046       .  S
N3184      H3187   1.043       .  S
N3184      H3188   1.046       .  S
C3189      C3190   1.407       .  A
C3189      C3194   1.409       .  A
C3189      H3196   1.084       .  S
C3190      C3191   1.417       .  A
C3191      C3192   1.400       .  A
C3191      N3198   1.438       .  S
C3192      C3193   1.396       .  A
C3192      H3197   1.083       .  S
C3193      C3194   1.407       .  A
C3194      N3195   1.436       .  S
N3195      H3199   1.045       .  S
N3195      H3200   1.045       .  S
N3198      H3201   1.045       .  S
N3198      H3202   1.046       .  S
C3203      C3204   1.407       .  A
C3203      C3208   1.415       .  A
C3203      H3210   1.084       .  S
C3204      C3205   1.412       .  A
C3205      C3206   1.392       .  A
C3205      N3212   1.439       .  S
C3206      C3207   1.405       .  A
C3206      H3211   1.083       .  S
C3207      C3208   1.414       .  A
C3208      N3209   1.437       .  S
N3209      H3213   1.046       .  S
N3209      H3214   1.045       .  S
N3212      H3215   1.041       .  S
N3212      H3216   1.045       .  S
C3217      C3218   1.403       .  A
C3217      C3222   1.411       .  A
C3217      H3224   1.084       .  S
C3218      C3219   1.406       .  A
C3219      C3220   1.392       .  A
C3219      N3226   1.439       .  S
C3220      C3221   1.406       .  A
C3220      H3225   1.083       .  S
C3221      C3222   1.416       .  A
C3222      N3223   1.437       .  S
N3223      H3227   1.046       .  S
N3223      H3228   1.046       .  S
N3226      H3229   1.045       .  S
N3226      H3230   1.046       .  S
C3231      C3232   1.403       .  A
C3231      C3236   1.407       .  A
C3231      H3238   1.084       .  S
C3232      C3233   1.417       .  A
C3233      C3234   1.400       .  A
C3233      N3240   1.437       .  S
C3234      C3235   1.398       .  A
C3234      H3239   1.085       .  S
C3235      C3236   1.407       .  A
C3236      N3237   1.437       .  S
N3237      H3241   1.046       .  S
N3237      H3242   1.046       .  S
N3240      H3243   1.042       .  S
N3240      H3244   1.044       .  S
C3245      C3246   1.400       .  A
C3245      C3250   1.404       .  A
C3245      H3252   1.084       .  S
C3246      C3247   1.415       .  A
C3247      C3248   1.399       .  A
C3247      N3254   1.441       .  S
C3248      C3249   1.405       .  A
C3248      H3253   1.085       .  S
C3249      C3250   1.425       .  A
C3250      N3251   1.439       .  S
N3251      H3255   1.046       .  S
N3251      H3256   1.038       .  S
N3254      H3257   1.044       .  S
N3254      H3258   1.044       .  S
C3259      C3260   1.403       .  A
C3259      C3264   1.414       .  A
C3259      H3266   1.084       .  S
C3260      C3261   1.402       .  A
C3261      C3262   1.386       .  A
C3261      N3268   1.433       .  S
C3262      C3263   1.404       .  A
C3262      H3267   1.082       .  S
C3263      C3264   1.420       .  A
C3264      N3265   1.438       .  S
N3265      H3269   1.046       .  S
N3265      H3270   1.044       .  S
N3268      H3271   1.046       .  S
N3268      H3272   1.046       .  S
C3273      C3274   1.391       .  A
C3273      C3278   1.389       .  A
C3273      H3280   1.085       .  S
C3274      C3275   1.417       .  A
C3275      C3276   1.409       .  A
C3275      N3282   1.438       .  S
C3276      C3277   1.407       .  A
C3276      H3281   1.084       .  S
C3277      C3278   1.425       .  A
C3278      N3279   1.428       .  S
N3279      H3283   1.043       .  S
N3279      H3284   1.042       .  S
N3282      H3285   1.043       .  S
N3282      H3286   1.045       .  S
C3287      C3288   1.405       .  A
C3287      C3292   1.400       .  A
C3287      H3294   1.084       .  S
C3288      C3289   1.421       .  A
C3289      C3290   1.407       .  A
C3289      N3296   1.432       .  S
C3290      C3291   1.407       .  A
C3290      H3295   1.084       .  S
C3291      C3292   1.424       .  A
C3292      N3293   1.434       .  S
N3293      H3297   1.045       .  S
N3293      H3298   1.044       .  S
N3296      H3299   1.046       .  S
N3296      H3300   1.045       .  S
C3301      C3302   1.404       .  A
C3301      C3306   1.406       .  A
C3301      H3308   1.084       .  S
C3302      C3303   1.413       .  A
C3303      C3304   1.406       .  A
C3303      N3310   1.438       .  S
C3304      C3305   1.404       .  A
C3304      H3309   1.084       .  S
C3305      C3306   1.413       .  A
C3306      N3307   1.438       .  S
N3307      H3311   1.046       .  S
N3307      H3312   1.045       .  S
N3310      H3313   1.045       .  S
N3310      H3314   1.046       .  S
C3315      C3316   1.395       .  A
C3315      C3320   1.395       .  A
C3315      H3322   1.085       .  S
C3316      C3317   1.412       .  A
C3317      C3318   1.413       .  A
C3317      N3324   1.437       .  S
C3318      C3319   1.408       .  A
C3318      H3323   1.083       .  S
C3319      C3320   1.420       .  A
C3320      N3321   1.432       .  S
N3321      H3325   1.046       .  S
N3321      H3326   1.046       .  S
N3324      H3327   1.045       .  S
N3324      H3328   1.046       .  S
C3329      C3330   1.404       .  A
C3329      C3334   1.415       .  A
C3329      H3336   1.083       .  S
C3330      C3331   1.423       .  A
C3331      C3332   1.396       .  A
C3331      N3338   1.437       .  S
C3332      C3333   1.394       .  A
C3332      H3337   1.085       .  S
C3333      C3334   1.414       .  A
C3334      N3335   1.437       .  S
N3335      H3339   1.046       .  S
N3335      H3340   1.045       .  S
N3338      H3341   1.038       .  S
N3338      H3342   1.046       .  S
C3343      C3344   1.407       .  A
C3343      C3348   1.408       .  A
C3343      H3350   1.084       .  S
C3344      C3345   1.414       .  A
C3345      C3346   1.405       .  A
C3345      N3352   1.438       .  S
C3346      C3347   1.407       .  A
C3346      H3351   1.084       .  S
C3347      C3348   1.414       .  A
C3348      N3349   1.438       .  S
N3349      H3353   1.046       .  S
N3349      H3354   1.045       .  S
N3352      H3355   1.045       .  S
N3352      H3356   1.046       .  S
C3357      C3358   1.405       .  A
C3357      C3362   1.406       .  A
C3357      H3364   1.084       .  S
C3358      C3359   1.415       .  A
C3359      C3360   1.405       .  A
C3359      N3366   1.438       .  S
C3360      C3361   1.405       .  A
C3360      H3365   1.084       .  S
C3361      C3362   1.412       .  A
C3362      N3363   1.432       .  S
N3363      H3367   1.045       .  S
N3363      H3368   1.046       .  S
N3366      H3369   1.046       .  S
N3366      H3370   1.046       .  S
C3371      C3372   1.406       .  A
C3371      C3376   1.411       .  A
C3371      H3378   1.084       .  S
C3372      C3373   1.410       .  A
C3373      C3374   1.395       .  A
C3373      N3380   1.440       .  S
C3374      C3375   1.410       .  A
C3374      H3379   1.084       .  S
C3375      C3376   1.420       .  A
C3376      N3377   1.438       .  S
N3377      H3381   1.046       .  S
N3377      H3382   1.041       .  S
N3380      H3383   1.041       .  S
N3380      H3384   1.046       .  S
C3385      C3386   1.403       .  A
C3385      C3390   1.407       .  A
C3385      H3392   1.084       .  S
C3386      C3387   1.413       .  A
C3387      C3388   1.408       .  A
C3387      N3394   1.438       .  S
C3388      C3389   1.404       .  A
C3388      H3393   1.083       .  S
C3389      C3390   1.413       .  A
C3390      N3391   1.438       .  S
N3391      H3395   1.046       .  S
N3391      H3396   1.046       .  S
N3394      H3397   1.046       .  S
N3394      H3398   1.046       .  S
C3399      C3400   1.407       .  A
C3399      C3404   1.407       .  A
C3399      H3406   1.084       .  S
C3400      C3401   1.412       .  A
C3401      C3402   1.396       .  A
C3401      N3408   1.440       .  S
C3402      C3403   1.405       .  A
C3402      H3407   1.085       .  S
C3403      C3404   1.413       .  A
C3404      N3405   1.438       .  S
N3405      H3409   1.046       .  S
N3405      H3410   1.043       .  S
N3408      H3411   1.043       .  S
N3408      H3412   1.046       .  S
C3413      C3414   1.408       .  A
C3413      C3418   1.401       .  A
C3413      H3420   1.083       .  S
C3414      C3415   1.415       .  A
C3415      C3416   1.406       .  A
C3415      N3422   1.432       .  S
C3416      C3417   1.404       .  A
C3416      H3421   1.084       .  S
C3417      C3418   1.408       .  A
C3418      N3419   1.433       .  S
N3419      H3423   1.046       .  S
N3419      H3424   1.046       .  S
N3422      H3425   1.046       .  S
N3422      H3426   1.046       .  S
C3427      C3428   1.405       .  A
C3427      C3432   1.412       .  A
C3427      H3434   1.084       .  S
C3428      C3429   1.421       .  A
C3429      C3430   1.390       .  A
C3429      N3436   1.428       .  S
C3430      C3431   1.391       .  A
C3430      H3435   1.085       .  S
C3431      C3432   1.420       .  A
C3432      N3433   1.438       .  S
N3433      H3437   1.045       .  S
N3433      H3438   1.044       .  S
N3436      H3439   1.045       .  S
N3436      H3440   1.043       .  S
C3441      C3442   1.411       .  A
C3441      C3446   1.408       .  A
C3441      H3448   1.083       .  S
C3442      C3443   1.422       .  A
C3443      C3444   1.400       .  A
C3443      N3450   1.433       .  S
C3444      C3445   1.402       .  A
C3444      H3449   1.082       .  S
C3445      C3446   1.416       .  A
C3446      N3447   1.439       .  S
N3447      H3451   1.046       .  S
N3447      H3452   1.044       .  S
N3450      H3453   1.046       .  S
N3450      H3454   1.045       .  S
C3455      C3456   1.409       .  A
C3455      C3460   1.412       .  A
C3455      H3462   1.084       .  S
C3456      C3457   1.410       .  A
C3457      C3458   1.397       .  A
C3457      N3464   1.437       .  S
C3458      C3459   1.407       .  A
C3458      H3463   1.084       .  S
C3459      C3460   1.421       .  A
C3460      N3461   1.439       .  S
N3461      H3465   1.046       .  S
N3461      H3466   1.041       .  S
N3464      H3467   1.046       .  S
N3464      H3468   1.045       .  S
C3469      C3470   1.407       .  A
C3469      C3474   1.399       .  A
C3469      H3476   1.084       .  S
C3470      C3471   1.417       .  A
C3471      C3472   1.413       .  A
C3471      N3478   1.437       .  S
C3472      C3473   1.406       .  A
C3472      H3477   1.083       .  S
C3473      C3474   1.410       .  A
C3474      N3475   1.433       .  S
N3475      H3479   1.045       .  S
N3475      H3480   1.045       .  S
N3478      H3481   1.046       .  S
N3478      H3482   1.046       .  S
C3483      C3484   1.404       .  A
C3483      C3488   1.412       .  A
C3483      H3490   1.084       .  S
C3484      C3485   1.416       .  A
C3485      C3486   1.401       .  A
C3485      N3492   1.432       .  S
C3486      C3487   1.404       .  A
C3486      H3491   1.084       .  S
C3487      C3488   1.417       .  A
C3488      N3489   1.438       .  S
N3489      H3493   1.046       .  S
N3489      H3494   1.044       .  S
N3492      H3495   1.045       .  S
N3492      H3496   1.044       .  S
C3497      C3498   1.392       .  A
C3497      C3502   1.398       .  A
C3497      H3504   1.084       .  S
C3498      C3499   1.413       .  A
C3499      C3500   1.413       .  A
C3499      N3506   1.437       .  S
C3500      C3501   1.403       .  A
C3500      H3505   1.083       .  S
C3501      C3502   1.416       .  A
C3502      N3503   1.437       .  S
N3503      H3507   1.046       .  S
N3503      H3508   1.042       .  S
N3506      H3509   1.045       .  S
N3506      H3510   1.046       .  S
C3511      C3512   1.405       .  A
C3511      C3516   1.403       .  A
C3511      H3518   1.084       .  S
C3512      C3513   1.416       .  A
C3513      C3514   1.410       .  A
C3513      N3520   1.437       .  S
C3514      C3515   1.406       .  A
C3514      H3519   1.083       .  S
C3515      C3516   1.415       .  A
C3516      N3517   1.439       .  S
N3517      H3521   1.046       .  S
N3517      H3522   1.046       .  S
N3520      H3523   1.044       .  S
N3520      H3524   1.046       .  S
C3525      C3526   1.411       .  A
C3525      C3530   1.417       .  A
C3525      H3532   1.083       .  S
C3526      C3527   1.408       .  A
C3527      C3528   1.382       .  A
C3527      N3534   1.423       .  S
C3528      C3529   1.399       .  A
C3528      H3533   1.085       .  S
C3529      C3530   1.411       .  A
C3530      N3531   1.436       .  S
N3531      H3535   1.046       .  S
N3531      H3536   1.045       .  S
N3534      H3537   1.046       .  S
N3534      H3538   1.044       .  S
C3539      C3540   1.404       .  A
C3539      C3544   1.412       .  A
C3539      H3546   1.084       .  S
C3540      C3541   1.408       .  A
C3541      C3542   1.400       .  A
C3541      N3548   1.439       .  S
C3542      C3543   1.409       .  A
C3542      H3547   1.083       .  S
C3543      C3544   1.417       .  A
C3544      N3545   1.437       .  S
N3545      H3549   1.046       .  S
N3545      H3550   1.046       .  S
N3548      H3551   1.045       .  S
N3548      H3552   1.046       .  S
C3553      C3554   1.408       .  A
C3553      C3558   1.414       .  A
C3553      H3560   1.084       .  S
C3554      C3555   1.402       .  A
C3555      C3556   1.398       .  A
C3555      N3562   1.430       .  S
C3556      C3557   1.398       .  A
C3556      H3561   1.082       .  S
C3557      C3558   1.417       .  A
C3558      N3559   1.437       .  S
N3559      H3563   1.045       .  S
N3559      H3564   1.044       .  S
N3562      H3565   1.044       .  S
N3562      H3566   1.046       .  S
C3567      C3568   1.404       .  A
C3567      C3572   1.405       .  A
C3567      H3574   1.084       .  S
C3568      C3569   1.414       .  A
C3569      C3570   1.407       .  A
C3569      N3576   1.438       .  S
C3570      C3571   1.405       .  A
C3570      H3575   1.083       .  S
C3571      C3572   1.414       .  A
C3572      N3573   1.438       .  S
N3573      H3577   1.046       .  S
N3573      H3578   1.046       .  S
N3576      H3579   1.046       .  S
N3576      H3580   1.046       .  S
C3581      C3582   1.407       .  A
C3581      C3586   1.412       .  A
C3581      H3588   1.083       .  S
C3582      C3583   1.423       .  A
C3583      C3584   1.395       .  A
C3583      N3590   1.434       .  S
C3584      C3585   1.402       .  A
C3584      H3589   1.084       .  S
C3585      C3586   1.418       .  A
C3586      N3587   1.437       .  S
N3587      H3591   1.046       .  S
N3587      H3592   1.045       .  S
N3590      H3593   1.045       .  S
N3590      H3594   1.044       .  S
C3595      C3596   1.392       .  A
C3595      C3600   1.399       .  A
C3595      H3602   1.085       .  S
C3596      C3597   1.412       .  A
C3597      C3598   1.416       .  A
C3597      N3604   1.437       .  S
C3598      C3599   1.409       .  A
C3598      H3603   1.083       .  S
C3599      C3600   1.423       .  A
C3600      N3601   1.436       .  S
N3601      H3605   1.046       .  S
N3601      H3606   1.045       .  S
N3604      H3607   1.046       .  S
N3604      H3608   1.046       .  S
C3609      C3610   1.393       .  A
C3609      C3614   1.394       .  A
C3609      H3616   1.080       .  S
C3610      C3611   1.415       .  A
C3611      C3612   1.414       .  A
C3611      N3618   1.437       .  S
C3612      C3613   1.403       .  A
C3612      H3617   1.083       .  S
C3613      C3614   1.415       .  A
C3614      N3615   1.437       .  S
N3615      H3619   1.046       .  S
N3615      H3620   1.045       .  S
N3618      H3621   1.046       .  S
N3618      H3622   1.046       .  S
C3623      C3624   1.407       .  A
C3623      C3628   1.410       .  A
C3623      H3630   1.084       .  S
C3624      C3625   1.405       .  A
C3625      C3626   1.402       .  A
C3625      N3632   1.436       .  S
C3626      C3627   1.404       .  A
C3626      H3631   1.084       .  S
C3627      C3628   1.415       .  A
C3628      N3629   1.437       .  S
N3629      H3633   1.046       .  S
N3629      H3634   1.044       .  S
N3632      H3635   1.044       .  S
N3632      H3636   1.046       .  S
C3637      C3638   1.403       .  A
C3637      C3642   1.407       .  A
C3637      H3644   1.084       .  S
C3638      C3639   1.413       .  A
C3639      C3640   1.396       .  A
C3639      N3646   1.433       .  S
C3640      C3641   1.403       .  A
C3640      H3645   1.083       .  S
C3641      C3642   1.413       .  A
C3642      N3643   1.438       .  S
N3643      H3647   1.046       .  S
N3643      H3648   1.044       .  S
N3646      H3649   1.046       .  S
N3646      H3650   1.044       .  S
C3651      C3652   1.397       .  A
C3651      C3656   1.398       .  A
C3651      H3658   1.085       .  S
C3652      C3653   1.411       .  A
C3653      C3654   1.413       .  A
C3653      N3660   1.437       .  S
C3654      C3655   1.409       .  A
C3654      H3659   1.083       .  S
C3655      C3656   1.421       .  A
C3656      N3657   1.433       .  S
N3657      H3661   1.045       .  S
N3657      H3662   1.046       .  S
N3660      H3663   1.046       .  S
N3660      H3664   1.046       .  S
C3665      C3666   1.393       .  A
C3665      C3670   1.394       .  A
C3665      H3672   1.085       .  S
C3666      C3667   1.421       .  A
C3667      C3668   1.411       .  A
C3667      N3674   1.438       .  S
C3668      C3669   1.404       .  A
C3668      H3673   1.084       .  S
C3669      C3670   1.422       .  A
C3670      N3671   1.435       .  S
N3671      H3675   1.045       .  S
N3671      H3676   1.038       .  S
N3674      H3677   1.043       .  S
N3674      H3678   1.045       .  S
C3679      C3680   1.402       .  A
C3679      C3684   1.400       .  A
C3679      H3686   1.084       .  S
C3680      C3681   1.414       .  A
C3681      C3682   1.401       .  A
C3681      N3688   1.439       .  S
C3682      C3683   1.409       .  A
C3682      H3687   1.083       .  S
C3683      C3684   1.421       .  A
C3684      N3685   1.433       .  S
N3685      H3689   1.045       .  S
N3685      H3690   1.045       .  S
N3688      H3691   1.043       .  S
N3688      H3692   1.046       .  S
C3693      C3694   1.405       .  A
C3693      C3698   1.412       .  A
C3693      H3700   1.084       .  S
C3694      C3695   1.411       .  A
C3695      C3696   1.400       .  A
C3695      N3702   1.439       .  S
C3696      C3697   1.408       .  A
C3696      H3701   1.083       .  S
C3697      C3698   1.417       .  A
C3698      N3699   1.437       .  S
N3699      H3703   1.046       .  S
N3699      H3704   1.046       .  S
N3702      H3705   1.046       .  S
N3702      H3706   1.046       .  S
C3707      C3708   1.402       .  A
C3707      C3712   1.397       .  A
C3707      H3714   1.084       .  S
C3708      C3709   1.415       .  A
C3709      C3710   1.412       .  A
C3709      N3716   1.437       .  S
C3710      C3711   1.408       .  A
C3710      H3715   1.083       .  S
C3711      C3712   1.423       .  A
C3712      N3713   1.433       .  S
N3713      H3717   1.045       .  S
N3713      H3718   1.045       .  S
N3716      H3719   1.046       .  S
N3716      H3720   1.046       .  S
C3721      C3722   1.408       .  A
C3721      C3726   1.414       .  A
C3721      H3728   1.084       .  S
C3722      C3723   1.404       .  A
C3723      C3724   1.402       .  A
C3723      N3730   1.439       .  S
C3724      C3725   1.401       .  A
C3724      H3729   1.082       .  S
C3725      C3726   1.408       .  A
C3726      N3727   1.436       .  S
N3727      H3731   1.046       .  S
N3727      H3732   1.046       .  S
N3730      H3733   1.045       .  S
N3730      H3734   1.045       .  S
C3735      C3736   1.408       .  A
C3735      C3740   1.403       .  A
C3735      H3742   1.084       .  S
C3736      C3737   1.416       .  A
C3737      C3738   1.411       .  A
C3737      N3744   1.437       .  S
C3738      C3739   1.407       .  A
C3738      H3743   1.084       .  S
C3739      C3740   1.416       .  A
C3740      N3741   1.432       .  S
N3741      H3745   1.044       .  S
N3741      H3746   1.046       .  S
N3744      H3747   1.045       .  S
N3744      H3748   1.046       .  S
C3749      C3750   1.394       .  A
C3749      C3754   1.397       .  A
C3749      H3756   1.085       .  S
C3750      C3751   1.412       .  A
C3751      C3752   1.413       .  A
C3751      N3758   1.437       .  S
C3752      C3753   1.404       .  A
C3752      H3757   1.084       .  S
C3753      C3754   1.424       .  A
C3754      N3755   1.439       .  S
N3755      H3759   1.045       .  S
N3755      H3760   1.039       .  S
N3758      H3761   1.045       .  S
N3758      H3762   1.046       .  S
C3763      C3764   1.395       .  A
C3763      C3768   1.400       .  A
C3763      H3770   1.084       .  S
C3764      C3765   1.414       .  A
C3765      C3766   1.412       .  A
C3765      N3772   1.438       .  S
C3766      C3767   1.401       .  A
C3766      H3771   1.083       .  S
C3767      C3768   1.414       .  A
C3768      N3769   1.437       .  S
N3769      H3773   1.046       .  S
N3769      H3774   1.040       .  S
N3772      H3775   1.045       .  S
N3772      H3776   1.046       .  S
C3777      C3778   1.397       .  A
C3777      C3782   1.401       .  A
C3777      H3784   1.084       .  S
C3778      C3779   1.416       .  A
C3779      C3780   1.415       .  A
C3779      N3786   1.437       .  S
C3780      C3781   1.403       .  A
C3780      H3785   1.083       .  S
C3781      C3782   1.416       .  A
C3782      N3783   1.438       .  S
N3783      H3787   1.046       .  S
N3783      H3788   1.044       .  S
N3786      H3789   1.046       .  S
N3786      H3790   1.046       .  S
C3791      C3792   1.393       .  A
C3791      C3796   1.394       .  A
C3791      H3798   1.085       .  S
C3792      C3793   1.415       .  A
C3793      C3794   1.415       .  A
C3793      N3800   1.437       .  S
C3794      C3795   1.404       .  A
C3794      H3799   1.083       .  S
C3795      C3796   1.423       .  A
C3796      N3797   1.436       .  S
N3797      H3801   1.046       .  S
N3797      H3802   1.037       .  S
N3800      H3803   1.046       .  S
N3800      H3804   1.046       .  S
C3805      C3806   1.408       .  A
C3805      C3810   1.397       .  A
C3805      H3812   1.084       .  S
C3806      C3807   1.419       .  A
C3807      C3808   1.402       .  A
C3807      N3814   1.432       .  S
C3808      C3809   1.405       .  A
C3808      H3813   1.084       .  S
C3809      C3810   1.416       .  A
C3810      N3811   1.434       .  S
N3811      H3815   1.045       .  S
N3811      H3816   1.042       .  S
N3814      H3817   1.046       .  S
N3814      H3818   1.044       .  S
C3819      C3820   1.407       .  A
C3819      C3824   1.408       .  A
C3819      H3826   1.083       .  S
C3820      C3821   1.417       .  A
C3821      C3822   1.405       .  A
C3821      N3828   1.438       .  S
C3822      C3823   1.404       .  A
C3822      H3827   1.084       .  S
C3823      C3824   1.413       .  A
C3824      N3825   1.437       .  S
N3825      H3829   1.046       .  S
N3825      H3830   1.045       .  S
N3828      H3831   1.044       .  S
N3828      H3832   1.046       .  S
C3833      C3834   1.408       .  A
C3833      C3838   1.411       .  A
C3833      H3840   1.084       .  S
C3834      C3835   1.410       .  A
C3835      C3836   1.402       .  A
C3835      N3842   1.439       .  S
C3836      C3837   1.403       .  A
C3836      H3841   1.082       .  S
C3837      C3838   1.406       .  A
C3838      N3839   1.437       .  S
N3839      H3843   1.046       .  S
N3839      H3844   1.045       .  S
N3842      H3845   1.045       .  S
N3842      H3846   1.046       .  S
C3847      C3848   1.410       .  A
C3847      C3852   1.410       .  A
C3847      H3854   1.083       .  S
C3848      C3849   1.417       .  A
C3849      C3850   1.399       .  A
C3849      N3856   1.438       .  S
C3850      C3851   1.406       .  A
C3850      H3855   1.083       .  S
C3851      C3852   1.411       .  A
C3852      N3853   1.432       .  S
N3853      H3857   1.046       .  S
N3853      H3858   1.046       .  S
N3856      H3859   1.046       .  S
N3856      H3860   1.046       .  S
C3861      C3862   1.403       .  A
C3861      C3866   1.413       .  A
C3861      H3868   1.083       .  S
C3862      C3863   1.422       .  A
C3863      C3864   1.394       .  A
C3863      N3870   1.436       .  S
C3864      C3865   1.391       .  A
C3864      H3869   1.085       .  S
C3865      C3866   1.412       .  A
C3866      N3867   1.437       .  S
N3867      H3871   1.046       .  S
N3867      H3872   1.045       .  S
N3870      H3873   1.038       .  S
N3870      H3874   1.045       .  S
C3875      C3876   1.408       .  A
C3875      C3880   1.411       .  A
C3875      H3882   1.084       .  S
C3876      C3877   1.412       .  A
C3877      C3878   1.402       .  A
C3877      N3884   1.430       .  S
C3878      C3879   1.401       .  A
C3878      H3883   1.084       .  S
C3879      C3880   1.411       .  A
C3880      N3881   1.437       .  S
N3881      H3885   1.046       .  S
N3881      H3886   1.046       .  S
N3884      H3887   1.046       .  S
N3884      H3888   1.045       .  S
C3889      C3890   1.406       .  A
C3889      C3894   1.401       .  A
C3889      H3896   1.085       .  S
C3890      C3891   1.414       .  A
C3891      C3892   1.409       .  A
C3891      N3898   1.438       .  S
C3892      C3893   1.408       .  A
C3892      H3897   1.084       .  S
C3893      C3894   1.415       .  A
C3894      N3895   1.440       .  S
N3895      H3899   1.046       .  S
N3895      H3900   1.043       .  S
N3898      H3901   1.043       .  S
N3898      H3902   1.046       .  S
C3903      C3904   1.405       .  A
C3903      C3908   1.402       .  A
C3903      H3910   1.084       .  S
C3904      C3905   1.415       .  A
C3905      C3906   1.410       .  A
C3905      N3912   1.437       .  S
C3906      C3907   1.406       .  A
C3906      H3911   1.083       .  S
C3907      C3908   1.415       .  A
C3908      N3909   1.439       .  S
N3909      H3913   1.046       .  S
N3909      H3914   1.046       .  S
N3912      H3915   1.046       .  S
N3912      H3916   1.046       .  S
C3917      C3918   1.392       .  A
C3917      C3922   1.397       .  A
C3917      H3924   1.085       .  S
C3918      C3919   1.418       .  A
C3919      C3920   1.409       .  A
C3919      N3926   1.438       .  S
C3920      C3921   1.406       .  A
C3920      H3925   1.084       .  S
C3921      C3922   1.420       .  A
C3922      N3923   1.435       .  S
N3923      H3927   1.046       .  S
N3923      H3928   1.043       .  S
N3926      H3929   1.043       .  S
N3926      H3930   1.045       .  S
C3931      C3932   1.405       .  A
C3931      C3936   1.406       .  A
C3931      H3938   1.084       .  S
C3932      C3933   1.416       .  A
C3933      C3934   1.412       .  A
C3933      N3940   1.437       .  S
C3934      C3935   1.408       .  A
C3934      H3939   1.083       .  S
C3935      C3936   1.418       .  A
C3936      N3937   1.438       .  S
N3937      H3941   1.046       .  S
N3937      H3942   1.046       .  S
N3940      H3943   1.045       .  S
N3940      H3944   1.046       .  S
C3945      C3946   1.409       .  A
C3945      C3950   1.407       .  A
C3945      H3952   1.083       .  S
C3946      C3947   1.420       .  A
C3947      C3948   1.409       .  A
C3947      N3954   1.438       .  S
C3948      C3949   1.402       .  A
C3948      H3953   1.084       .  S
C3949      C3950   1.410       .  A
C3950      N3951   1.438       .  S
N3951      H3955   1.046       .  S
N3951      H3956   1.046       .  S
N3954      H3957   1.045       .  S
N3954      H3958   1.046       .  S
C3959      C3960   1.397       .  A
C3959      C3964   1.398       .  A
C3959      H3966   1.085       .  S
C3960      C3961   1.423       .  A
C3961      C3962   1.408       .  A
C3961      N3968   1.439       .  S
C3962      C3963   1.401       .  A
C3962      H3967   1.084       .  S
C3963      C3964   1.412       .  A
C3964      N3965   1.437       .  S
N3965      H3969   1.046       .  S
N3965      H3970   1.040       .  S
N3968      H3971   1.042       .  S
N3968      H3972   1.046       .  S
C3973      C3974   1.391       .  A
C3973      C3978   1.391       .  A
C3973      H3980   1.085       .  S
C3974      C3975   1.420       .  A
C3975      C3976   1.413       .  A
C3975      N3982   1.438       .  S
C3976      C3977   1.406       .  A
C3976      H3981   1.084       .  S
C3977      C3978   1.421       .  A
C3978      N3979   1.428       .  S
N3979      H3983   1.044       .  S
N3979      H3984   1.045       .  S
N3982      H3985   1.044       .  S
N3982      H3986   1.045       .  S
C3987      C3988   1.403       .  A
C3987      C3992   1.408       .  A
C3987      H3994   1.084       .  S
C3988      C3989   1.415       .  A
C3989      C3990   1.400       .  A
C3989      N3996   1.433       .  S
C3990      C3991   1.404       .  A
C3990      H3995   1.084       .  S
C3991      C3992   1.415       .  A
C3992      N3993   1.438       .  S
N3993      H3997   1.046       .  S
N3993      H3998   1.044       .  S
N3996      H3999   1.046       .  S
N3996      H4000   1.044       .  S
C4001      C4002   1.395       .  A
C4001      C4006   1.400       .  A
C4001      H4008   1.085       .  S
C4002      C4003   1.418       .  A
C4003      C4004   1.407       .  A
C4003      N4010   1.438       .  S
C4004      C4005   1.402       .  A
C4004      H4009   1.084       .  S
C4005      C4006   1.416       .  A
C4006      N4007   1.438       .  S
N4007      H4011   1.046       .  S
N4007      H4012   1.045       .  S
N4010      H4013   1.043       .  S
N4010      H4014   1.045       .  S
C4015      C4016   1.403       .  A
C4015      C4020   1.414       .  A
C4015      H4022   1.083       .  S
C4016      C4017   1.415       .  A
C4017      C4018   1.402       .  A
C4017      N4024   1.437       .  S
C4018      C4019   1.396       .  A
C4018      H4023   1.084       .  S
C4019      C4020   1.414       .  A
C4020      N4021   1.437       .  S
N4021      H4025   1.046       .  S
N4021      H4026   1.045       .  S
N4024      H4027   1.042       .  S
N4024      H4028   1.046       .  S
C4029      C4030   1.394       .  A
C4029      C4034   1.403       .  A
C4029      H4036   1.084       .  S
C4030      C4031   1.414       .  A
C4031      C4032   1.417       .  A
C4031      N4038   1.437       .  S
C4032      C4033   1.405       .  A
C4032      H4037   1.083       .  S
C4033      C4034   1.419       .  A
C4034      N4035   1.437       .  S
N4035      H4039   1.046       .  S
N4035      H4040   1.045       .  S
N4038      H4041   1.046       .  S
N4038      H4042   1.046       .  S
C4043      C4044   1.403       .  A
C4043      C4048   1.414       .  A
C4043      H4050   1.083       .  S
C4044      C4045   1.422       .  A
C4045      C4046   1.392       .  A
C4045      N4052   1.437       .  S
C4046      C4047   1.392       .  A
C4046      H4051   1.085       .  S
C4047      C4048   1.415       .  A
C4048      N4049   1.437       .  S
N4049      H4053   1.046       .  S
N4049      H4054   1.046       .  S
N4052      H4055   1.036       .  S
N4052      H4056   1.044       .  S
C4057      C4058   1.408       .  A
C4057      C4062   1.405       .  A
C4057      H4064   1.084       .  S
C4058      C4059   1.414       .  A
C4059      C4060   1.406       .  A
C4059      N4066   1.438       .  S
C4060      C4061   1.409       .  A
C4060      H4065   1.084       .  S
C4061      C4062   1.419       .  A
C4062      N4063   1.432       .  S
N4063      H4067   1.043       .  S
N4063      H4068   1.045       .  S
N4066      H4069   1.046       .  S
N4066      H4070   1.046       .  S
C4071      C4072   1.408       .  A
C4071      C4076   1.413       .  A
C4071      H4078   1.083       .  S
C4072      C4073   1.424       .  A
C4073      C4074   1.402       .  A
C4073      N4080   1.439       .  S
C4074      C4075   1.399       .  A
C4074      H4079   1.084       .  S
C4075      C4076   1.413       .  A
C4076      N4077   1.437       .  S
N4077      H4081   1.046       .  S
N4077      H4082   1.045       .  S
N4080      H4083   1.045       .  S
N4080      H4084   1.046       .  S
C4085      C4086   1.406       .  A
C4085      C4090   1.405       .  A
C4085      H4092   1.084       .  S
C4086      C4087   1.414       .  A
C4087      C4088   1.404       .  A
C4087      N4094   1.438       .  S
C4088      C4089   1.406       .  A
C4088      H4093   1.084       .  S
C4089      C4090   1.411       .  A
C4090      N4091   1.432       .  S
N4091      H4095   1.045       .  S
N4091      H4096   1.046       .  S
N4094      H4097   1.046       .  S
N4094      H4098   1.046       .  S
C4099      C4100   1.406       .  A
C4099      C4104   1.408       .  A
C4099      H4106   1.083       .  S
C4100      C4101   1.419       .  A
C4101      C4102   1.405       .  A
C4101      N4108   1.438       .  S
C4102      C4103   1.402       .  A
C4102      H4107   1.084       .  S
C4103      C4104   1.414       .  A
C4104      N4105   1.437       .  S
N4105      H4109   1.046       .  S
N4105      H4110   1.045       .  S
N4108      H4111   1.046       .  S
N4108      H4112   1.046       .  S
C4113      C4114   1.409       .  A
C4113      C4118   1.411       .  A
C4113      H4120   1.083       .  S
C4114      C4115   1.419       .  A
C4115      C4116   1.392       .  A
C4115      N4122   1.434       .  S
C4116      C4117   1.397       .  A
C4116      H4121   1.085       .  S
C4117      C4118   1.410       .  A
C4118      N4119   1.437       .  S
N4119      H4123   1.046       .  S
N4119      H4124   1.046       .  S
N4122      H4125   1.046       .  S
N4122      H4126   1.046       .  S
C4127      C4128   1.408       .  A
C4127      C4132   1.406       .  A
C4127      H4134   1.083       .  S
C4128      C4129   1.419       .  A
C4129      C4130   1.412       .  A
C4129      N4136   1.438       .  S
C4130      C4131   1.405       .  A
C4130      H4135   1.084       .  S
C4131      C4132   1.412       .  A
C4132      N4133   1.438       .  S
N4133      H4137   1.046       .  S
N4133      H4138   1.046       .  S
N4136      H4139   1.045       .  S
N4136      H4140   1.046       .  S
C4141      C4142   1.407       .  A
C4141      C4146   1.409       .  A
C4141      H4148   1.084       .  S
C4142      C4143   1.403       .  A
C4143      C4144   1.402       .  A
C4143      N4150   1.439       .  S
C4144      C4145   1.405       .  A
C4144      H4149   1.083       .  S
C4145      C4146   1.414       .  A
C4146      N4147   1.437       .  S
N4147      H4151   1.046       .  S
N4147      H4152   1.044       .  S
N4150      H4153   1.045       .  S
N4150      H4154   1.044       .  S
C4155      C4156   1.405       .  A
C4155      C4160   1.413       .  A
C4155      H4162   1.084       .  S
C4156      C4157   1.409       .  A
C4157      C4158   1.407       .  A
C4157      N4164   1.438       .  S
C4158      C4159   1.405       .  A
C4158      H4163   1.080       .  S
C4159      C4160   1.412       .  A
C4160      N4161   1.437       .  S
N4161      H4165   1.046       .  S
N4161      H4166   1.045       .  S
N4164      H4167   1.045       .  S
N4164      H4168   1.046       .  S
C4169      C4170   1.405       .  A
C4169      C4174   1.409       .  A
C4169      H4176   1.084       .  S
C4170      C4171   1.404       .  A
C4171      C4172   1.394       .  A
C4171      N4178   1.432       .  S
C4172      C4173   1.408       .  A
C4172      H4177   1.084       .  S
C4173      C4174   1.414       .  A
C4174      N4175   1.432       .  S
N4175      H4179   1.046       .  S
N4175      H4180   1.046       .  S
N4178      H4181   1.045       .  S
N4178      H4182   1.046       .  S
C4183      C4184   1.407       .  A
C4183      C4188   1.405       .  A
C4183      H4190   1.083       .  S
C4184      C4185   1.416       .  A
C4185      C4186   1.407       .  A
C4185      N4192   1.431       .  S
C4186      C4187   1.402       .  A
C4186      H4191   1.084       .  S
C4187      C4188   1.412       .  A
C4188      N4189   1.438       .  S
N4189      H4193   1.046       .  S
N4189      H4194   1.046       .  S
N4192      H4195   1.045       .  S
N4192      H4196   1.045       .  S
C4197      C4198   1.409       .  A
C4197      C4202   1.410       .  A
C4197      H4204   1.084       .  S
C4198      C4199   1.416       .  A
C4199      C4200   1.396       .  A
C4199      N4206   1.439       .  S
C4200      C4201   1.401       .  A
C4200      H4205   1.084       .  S
C4201      C4202   1.406       .  A
C4202      N4203   1.437       .  S
N4203      H4207   1.046       .  S
N4203      H4208   1.045       .  S
N4206      H4209   1.042       .  S
N4206      H4210   1.045       .  S
C4211      C4212   1.397       .  A
C4211      C4216   1.398       .  A
C4211      H4218   1.085       .  S
C4212      C4213   1.411       .  A
C4213      C4214   1.410       .  A
C4213      N4220   1.437       .  S
C4214      C4215   1.407       .  A
C4214      H4219   1.083       .  S
C4215      C4216   1.421       .  A
C4216      N4217   1.434       .  S
N4217      H4221   1.045       .  S
N4217      H4222   1.046       .  S
N4220      H4223   1.046       .  S
N4220      H4224   1.046       .  S
C4225      C4226   1.408       .  A
C4225      C4230   1.407       .  A
C4225      H4232   1.084       .  S
C4226      C4227   1.411       .  A
C4227      C4228   1.402       .  A
C4227      N4234   1.439       .  S
C4228      C4229   1.403       .  A
C4228      H4233   1.081       .  S
C4229      C4230   1.413       .  A
C4230      N4231   1.437       .  S
N4231      H4235   1.045       .  S
N4231      H4236   1.044       .  S
N4234      H4237   1.045       .  S
N4234      H4238   1.046       .  S
C4239      C4240   1.395       .  A
C4239      C4244   1.400       .  A
C4239      H4246   1.084       .  S
C4240      C4241   1.414       .  A
C4241      C4242   1.413       .  A
C4241      N4248   1.437       .  S
C4242      C4243   1.402       .  A
C4242      H4247   1.083       .  S
C4243      C4244   1.415       .  A
C4244      N4245   1.436       .  S
N4245      H4249   1.046       .  S
N4245      H4250   1.041       .  S
N4248      H4251   1.046       .  S
N4248      H4252   1.046       .  S
C4253      C4254   1.401       .  A
C4253      C4258   1.401       .  A
C4253      H4260   1.084       .  S
C4254      C4255   1.420       .  A
C4255      C4256   1.408       .  A
C4255      N4262   1.437       .  S
C4256      C4257   1.408       .  A
C4256      H4261   1.084       .  S
C4257      C4258   1.420       .  A
C4258      N4259   1.439       .  S
N4259      H4263   1.046       .  S
N4259      H4264   1.046       .  S
N4262      H4265   1.042       .  S
N4262      H4266   1.045       .  S
C4267      C4268   1.395       .  A
C4267      C4272   1.403       .  A
C4267      H4274   1.084       .  S
C4268      C4269   1.412       .  A
C4269      C4270   1.414       .  A
C4269      N4276   1.437       .  S
C4270      C4271   1.405       .  A
C4270      H4275   1.083       .  S
C4271      C4272   1.417       .  A
C4272      N4273   1.437       .  S
N4273      H4277   1.046       .  S
N4273      H4278   1.044       .  S
N4276      H4279   1.045       .  S
N4276      H4280   1.046       .  S
C4281      C4282   1.406       .  A
C4281      C4286   1.409       .  A
C4281      H4288   1.083       .  S
C4282      C4283   1.416       .  A
C4283      C4284   1.401       .  A
C4283      N4290   1.439       .  S
C4284      C4285   1.404       .  A
C4284      H4289   1.084       .  S
C4285      C4286   1.415       .  A
C4286      N4287   1.437       .  S
N4287      H4291   1.046       .  S
N4287      H4292   1.045       .  S
N4290      H4293   1.046       .  S
N4290      H4294   1.046       .  S
C4295      C4296   1.406       .  A
C4295      C4300   1.409       .  A
C4295      H4302   1.084       .  S
C4296      C4297   1.416       .  A
C4297      C4298   1.412       .  A
C4297      N4304   1.437       .  S
C4298      C4299   1.408       .  A
C4298      H4303   1.083       .  S
C4299      C4300   1.418       .  A
C4300      N4301   1.438       .  S
N4301      H4305   1.046       .  S
N4301      H4306   1.045       .  S
N4304      H4307   1.045       .  S
N4304      H4308   1.046       .  S
C4309      C4310   1.399       .  A
C4309      C4314   1.400       .  A
C4309      H4316   1.084       .  S
C4310      C4311   1.411       .  A
C4311      C4312   1.415       .  A
C4311      N4318   1.437       .  S
C4312      C4313   1.411       .  A
C4312      H4317   1.083       .  S
C4313      C4314   1.420       .  A
C4314      N4315   1.433       .  S
N4315      H4319   1.045       .  S
N4315      H4320   1.046       .  S
N4318      H4321   1.046       .  S
N4318      H4322   1.046       .  S
C4323      C4324   1.406       .  A
C4323      C4328   1.404       .  A
C4323      H4330   1.084       .  S
C4324      C4325   1.426       .  A
C4325      C4326   1.402       .  A
C4325      N4332   1.439       .  S
C4326      C4327   1.401       .  A
C4326      H4331   1.084       .  S
C4327      C4328   1.411       .  A
C4328      N4329   1.438       .  S
N4329      H4333   1.046       .  S
N4329      H4334   1.046       .  S
N4332      H4335   1.037       .  S
N4332      H4336   1.046       .  S
C4337      C4338   1.409       .  A
C4337      C4342   1.413       .  A
C4337      H4344   1.084       .  S
C4338      C4339   1.409       .  A
C4339      C4340   1.405       .  A
C4339      N4346   1.439       .  S
C4340      C4341   1.405       .  A
C4340      H4345   1.084       .  S
C4341      C4342   1.407       .  A
C4342      N4343   1.437       .  S
N4343      H4347   1.046       .  S
N4343      H4348   1.045       .  S
N4346      H4349   1.045       .  S
N4346      H4350   1.046       .  S
C4351      C4352   1.403       .  A
C4351      C4356   1.400       .  A
C4351      H4358   1.084       .  S
C4352      C4353   1.416       .  A
C4353      C4354   1.405       .  A
C4353      N4360   1.439       .  S
C4354      C4355   1.411       .  A
C4354      H4359   1.083       .  S
C4355      C4356   1.420       .  A
C4356      N4357   1.430       .  S
N4357      H4361   1.045       .  S
N4357      H4362   1.044       .  S
N4360      H4363   1.043       .  S
N4360      H4364   1.046       .  S
C4365      C4366   1.408       .  A
C4365      C4370   1.413       .  A
C4365      H4372   1.083       .  S
C4366      C4367   1.422       .  A
C4367      C4368   1.387       .  A
C4367      N4374   1.425       .  S
C4368      C4369   1.389       .  A
C4368      H4373   1.085       .  S
C4369      C4370   1.419       .  A
C4370      N4371   1.437       .  S
N4371      H4375   1.045       .  S
N4371      H4376   1.044       .  S
N4374      H4377   1.042       .  S
N4374      H4378   1.044       .  S
C4379      C4380   1.404       .  A
C4379      C4384   1.407       .  A
C4379      H4386   1.084       .  S
C4380      C4381   1.409       .  A
C4381      C4382   1.402       .  A
C4381      N4388   1.432       .  S
C4382      C4383   1.404       .  A
C4382      H4387   1.084       .  S
C4383      C4384   1.415       .  A
C4384      N4385   1.438       .  S
N4385      H4389   1.046       .  S
N4385      H4390   1.045       .  S
N4388      H4391   1.046       .  S
N4388      H4392   1.046       .  S
C4393      C4394   1.406       .  A
C4393      C4398   1.414       .  A
C4393      H4400   1.083       .  S
C4394      C4395   1.410       .  A
C4395      C4396   1.402       .  A
C4395      N4402   1.439       .  S
C4396      C4397   1.409       .  A
C4396      H4401   1.083       .  S
C4397      C4398   1.417       .  A
C4398      N4399   1.437       .  S
N4399      H4403   1.046       .  S
N4399      H4404   1.046       .  S
N4402      H4405   1.046       .  S
N4402      H4406   1.046       .  S
C4407      C4408   1.406       .  A
C4407      C4412   1.405       .  A
C4407      H4414   1.078       .  S
C4408      C4409   1.416       .  A
C4409      C4410   1.410       .  A
C4409      N4416   1.438       .  S
C4410      C4411   1.405       .  A
C4410      H4415   1.084       .  S
C4411      C4412   1.402       .  A
C4412      N4413   1.438       .  S
N4413      H4417   1.043       .  S
N4413      H4418   1.046       .  S
N4416      H4419   1.044       .  S
N4416      H4420   1.046       .  S
C4421      C4422   1.408       .  A
C4421      C4426   1.401       .  A
C4421      H4428   1.083       .  S
C4422      C4423   1.416       .  A
C4423      C4424   1.412       .  A
C4423      N4430   1.438       .  S
C4424      C4425   1.409       .  A
C4424      H4429   1.083       .  S
C4425      C4426   1.413       .  A
C4426      N4427   1.439       .  S
N4427      H4431   1.046       .  S
N4427      H4432   1.046       .  S
N4430      H4433   1.043       .  S
N4430      H4434   1.046       .  S
C4435      C4436   1.404       .  A
C4435      C4440   1.416       .  A
C4435      H4442   1.083       .  S
C4436      C4437   1.421       .  A
C4437      C4438   1.389       .  A
C4437      N4444   1.432       .  S
C4438      C4439   1.390       .  A
C4438      H4443   1.085       .  S
C4439      C4440   1.416       .  A
C4440      N4441   1.437       .  S
N4441      H4445   1.046       .  S
N4441      H4446   1.045       .  S
N4444      H4447   1.037       .  S
N4444      H4448   1.042       .  S
