geometry optimzed in LAMMPS
_audit_creation_date              2020-11-30 
_audit_creation_method            'lammps2cif' 
_symmetry_space_group_name_H-M    'P1' 
_symmetry_Int_Tables_number       1 
_symmetry_cell_setting            triclinic 
loop_ 
_symmetry_equiv_pos_as_xyz 
  x,y,z 
_cell_length_a                    41.752788426449285 
_cell_length_b                    41.716851290124566 
_cell_length_c                    52.73798512770472 
_cell_angle_alpha                 92.99384548736015 
_cell_angle_beta                  89.7527230179278 
_cell_angle_gamma                 90.72182290067661 
loop_ 
_atom_site_label 
_atom_site_type_symbol 
_atom_site_fract_x 
_atom_site_fract_y 
_atom_site_fract_z 
_atom_site_charge 
C1          C  0.24575937  0.35198542  0.55900008     0.03180
C2          C  0.24669609  0.35177860  0.53237488    -0.12970
C3          C  0.24770032  0.38054493  0.51995701     0.00680
C4          C  0.24832077  0.40972850  0.53413496    -0.11500
C5          C  0.24790425  0.41040452  0.56073481     0.03170
C6          C  0.24640079  0.38146742  0.57326399    -0.10920
H7          H  0.24634576  0.32915817  0.52128913     0.08760
H8          H  0.24924236  0.43202802  0.52443685     0.06290
H9          H  0.24581394  0.38188934  0.59383430     0.06140
Zn10       Zn  0.22137725  0.10546477  0.56977772     1.49720
Zn11       Zn  0.27770981  0.15797517  0.57033046     1.49360
Zn12       Zn  0.22321755  0.16216376  0.61312807     1.49110
Zn13       Zn  0.27428683  0.10646036  0.61311477     1.49480
O14         O  0.24915230  0.13302728  0.59150892    -1.84080
O15         O  0.23060895  0.11190419  0.53281227    -0.74710
O16         O  0.26771023  0.20510024  0.57436833    -0.74530
O17         O  0.17626138  0.15005886  0.60943565    -0.74050
O18         O  0.27189850  0.14494741  0.53321424    -0.74730
O19         O  0.17466763  0.11514006  0.57633888    -0.74320
O20         O  0.22836638  0.20806616  0.60295869    -0.74910
O21         O  0.26376091  0.11605345  0.64991446    -0.74300
O22         O  0.32409539  0.15259646  0.57962954    -0.75060
O23         O  0.23568921  0.16054089  0.65019120    -0.74450
O24         O  0.32148526  0.11587140  0.60876515    -0.74910
O25         O  0.26686560  0.05925281  0.60524069    -0.74820
O26         O  0.22892956  0.05839369  0.57575870    -0.74610
C27         C  0.25168750  0.12738113  0.52082603     0.77180
C28         C  0.24731658  0.22125412  0.58751678     0.77670
C29         C  0.16038134  0.13239415  0.59338258     0.76630
C30         C  0.25049320  0.13947987  0.66206786     0.77010
C31         C  0.33749824  0.13480835  0.59523242     0.78140
C32         C  0.24802927  0.04389070  0.58995787     0.77190
C33         C  0.46970741  0.12980249  0.62242645     0.03180
C34         C  0.99824382  0.13089558  0.60820150    -0.12970
C35         C  0.02759141  0.12462086  0.61976849     0.00680
C36         C  0.02829969  0.11714679  0.64536051    -0.11500
C37         C  0.00029066  0.11780927  0.66002375     0.03170
C38         C  0.47107483  0.12373057  0.64833659    -0.10920
H39         H  0.99766139  0.13683581  0.58843568     0.08760
H40         H  0.05103939  0.11245873  0.65422164     0.06290
H41         H  0.44925189  0.12410368  0.65955896     0.06140
C42         C  0.99994386  0.39721606  0.87129806     0.03180
C43         C  0.99954756  0.39785027  0.89788923    -0.12970
C44         C  0.00133510  0.36935970  0.91056172     0.00680
C45         C  0.00353957  0.34006345  0.89663267    -0.11500
C46         C  0.00395245  0.33909313  0.87002059     0.03170
C47         C  0.00215360  0.36775768  0.85725206    -0.10920
H48         H  0.99796247  0.42057548  0.90873162     0.08760
H49         H  0.00478999  0.31794916  0.90651130     0.06290
H50         H  0.00238873  0.36713687  0.83667291     0.06140
Zn51       Zn  0.47485577  0.14409018  0.81799628     1.49720
Zn52       Zn  0.02343104  0.08557244  0.81755237     1.49360
Zn53       Zn  0.02938115  0.14265989  0.86018433     1.49110
Zn54       Zn  0.47064724  0.09343757  0.86131128     1.49480
O55         O  0.99953531  0.11646511  0.83918585    -1.84080
O56         O  0.48332412  0.13355069  0.78099409    -0.74710
O57         O  0.07084034  0.09227762  0.82256150    -0.74530
O58         O  0.02247926  0.18999586  0.85530294    -0.74050
O59         O  0.01491198  0.09091110  0.78045085    -0.74730
O60         O  0.48622848  0.19069457  0.82477191    -0.74320
O61         O  0.07532519  0.13187134  0.85148438    -0.74910
O62         O  0.47818682  0.10702315  0.89797992    -0.74300
O63         O  0.01321325  0.04000144  0.82592896    -0.75060
O64         O  0.02272474  0.13546175  0.89742387    -0.74450
O65         O  0.47852498  0.04567338  0.85782836    -0.74910
O66         O  0.42427769  0.10151007  0.85332210    -0.74820
O67         O  0.42748040  0.13857019  0.82448785    -0.74610
C68         C  0.99929631  0.11178775  0.76903790     0.77180
C69         C  0.08836065  0.11108816  0.83639820     0.77670
C70         C  0.00491854  0.20539855  0.84052654     0.76630
C71         C  0.00058394  0.12211541  0.90986628     0.77010
C72         C  0.99578196  0.02801357  0.84297363     0.78140
C73         C  0.41110091  0.12056899  0.83854990     0.77190
C74         C  0.27953937  0.13042363  0.81274945     0.03180
C75         C  0.28003010  0.13965268  0.78754317    -0.12970
C76         C  0.25243081  0.13674406  0.77248701     0.00680
C77         C  0.22348120  0.12801382  0.78401429    -0.11500
C78         C  0.22203689  0.12178048  0.80991977     0.03170
C79         C  0.25044985  0.12182607  0.82407183    -0.10920
H80         H  0.30255336  0.14688568  0.77915274     0.08760
H81         H  0.20187619  0.12563057  0.77272665     0.06290
H82         H  0.25000118  0.11476591  0.84357506     0.06140
C83         C  0.22148184  0.37701302  0.12033869     0.03180
C84         C  0.22091944  0.37178860  0.14641109    -0.12970
C85         C  0.24945072  0.36960436  0.15990180     0.00680
C86         C  0.27873357  0.37169656  0.14713444    -0.11500
C87         C  0.27974194  0.37726386  0.12109894     0.03170
C88         C  0.25096727  0.37996735  0.10766245    -0.10920
H89         H  0.19821282  0.37058223  0.15639455     0.08760
H90         H  0.30085196  0.37027198  0.15769892     0.06290
H91         H  0.25150551  0.38501919  0.08770033     0.06140
Zn92       Zn  0.47275304  0.40713401  0.06868723     1.49720
Zn93       Zn  0.02583830  0.41178084  0.11271919     1.49360
Zn94       Zn  0.47297214  0.35589412  0.11150541     1.49110
Zn95       Zn  0.02828121  0.35508576  0.06938248     1.49480
O96         O  0.49998480  0.38254137  0.09054890    -1.84080
O97         O  0.48275967  0.45421482  0.07366239    -0.74710
O98         O  0.01696955  0.40548102  0.14993539    -0.74530
O99         O  0.42643985  0.36375429  0.10554063    -0.74050
O100        O  0.01843569  0.45839397  0.10489369    -0.74730
O101        O  0.42570767  0.40080021  0.07667000    -0.74320
O102        O  0.48086360  0.36599015  0.14854207    -0.74910
O103        O  0.01997837  0.30835601  0.07570413    -0.74300
O104        O  0.07265165  0.40249705  0.10751081    -0.75060
O105        O  0.48101697  0.30883307  0.10451466    -0.74450
O106        O  0.07509925  0.36568975  0.07607763    -0.74910
O107        O  0.02002275  0.35998201  0.03225028    -0.74820
O108        O  0.48045288  0.39501158  0.03165487    -0.74610
C109        C  0.50089296  0.47114271  0.08852234     0.77180
C110        C  0.49885740  0.38581285  0.16108797     0.77670
C111        C  0.41134049  0.38254772  0.09176151     0.76630
C112        C  0.50033932  0.29364564  0.08971243     0.77010
C113        C  0.08910036  0.38456007  0.09233690     0.78140
C114        C  0.50027893  0.37636818  0.02014218     0.77190
C115        C  0.50309136  0.10191264  0.06066820     0.03180
C116        C  0.50432507  0.10086209  0.03407035    -0.12970
C117        C  0.50135161  0.12894803  0.02088378     0.00680
C118        C  0.49822261  0.15835389  0.03465226    -0.11500
C119        C  0.49888976  0.15988422  0.06126451     0.03170
C120        C  0.50082674  0.13155037  0.07437369    -0.10920
H121        H  0.50674116  0.07796375  0.02359605     0.08760
H122        H  0.49585783  0.18025444  0.02463237     0.06290
H123        H  0.50055877  0.13255409  0.09495898     0.06140
C124        C  0.02861194  0.37210981  0.30941154     0.03180
C125        C  0.02824684  0.37856877  0.28350735    -0.12970
C126        C  0.99927579  0.38110485  0.27061166     0.00680
C127        C  0.47042815  0.37865019  0.28390950    -0.11500
C128        C  0.47025546  0.37234472  0.30980889     0.03170
C129        C  0.99943389  0.36882501  0.32254960    -0.10920
H130        H  0.05060058  0.38012738  0.27307735     0.08760
H131        H  0.44797374  0.38037787  0.27384019     0.06290
H132        H  0.99940884  0.36287398  0.34232179     0.06140
Zn133      Zn  0.22160537  0.39653216  0.36031212     1.49720
Zn134      Zn  0.27715978  0.34456356  0.36211710     1.49360
Zn135      Zn  0.22556249  0.33867217  0.31791102     1.49110
Zn136      Zn  0.27745460  0.39516555  0.31856398     1.49480
O137        O  0.25045368  0.36882172  0.33979256    -1.84080
O138        O  0.22908861  0.39193543  0.39779516    -0.74710
O139        O  0.26780203  0.29737613  0.35742532    -0.74530
O140        O  0.17896197  0.34555581  0.32433813    -0.74050
O141        O  0.26841905  0.35678361  0.39883035    -0.74730
O142        O  0.17478795  0.38616417  0.35232027    -0.74320
O143        O  0.23488333  0.29229511  0.32451993    -0.74910
O144        O  0.26902681  0.38516865  0.28153031    -0.74300
O145        O  0.32425508  0.35109361  0.35457056    -0.75060
O146        O  0.23255443  0.34603842  0.28076502    -0.74450
O147        O  0.32394051  0.38679493  0.32460101    -0.74910
O148        O  0.26959512  0.44236662  0.32534540    -0.74820
O149        O  0.23061273  0.44304403  0.35406275    -0.74610
C150        C  0.24859334  0.37555008  0.41018123     0.77180
C151        C  0.25141285  0.27993899  0.34165849     0.77670
C152        C  0.16159110  0.36470527  0.33765081     0.76630
C153        C  0.25044049  0.36558493  0.26931578     0.77010
C154        C  0.33881932  0.36855562  0.33900600     0.78140
C155        C  0.25028771  0.45770344  0.34006674     0.77190
C156        C  0.24969635  0.14936896  0.37000753     0.03180
C157        C  0.25121280  0.11981106  0.35612942    -0.12970
C158        C  0.25312166  0.09134454  0.36903265     0.00680
C159        C  0.25449703  0.09262498  0.39562227    -0.11500
C160        C  0.25190788  0.12194402  0.40963770     0.03170
C161        C  0.24905144  0.15022979  0.39663889    -0.10920
H162        H  0.25101417  0.11897684  0.33554599     0.08760
H163        H  0.25678751  0.07057031  0.40545031     0.06290
H164        H  0.24713910  0.17308334  0.40724975     0.06140
C165        C  0.27978378  0.19649107  0.35492455    -0.01800
C166        C  0.25043199  0.18002903  0.35729486     0.07880
C167        C  0.22168414  0.19487631  0.35107452    -0.01910
C168        C  0.22197192  0.22717868  0.34449580    -0.01920
C169        C  0.25123803  0.24466524  0.34405977     0.08010
C170        C  0.28025622  0.22873148  0.34842017    -0.02110
Br171      Br  0.32092423  0.25084033  0.34590663    -0.00660
Br172      Br  0.31931043  0.17494339  0.36158243    -0.00730
Br173      Br  0.18175668  0.24784589  0.33880363    -0.00690
Br174      Br  0.18182935  0.17118702  0.35296776    -0.00680
C175        C  0.28139091  0.04334578  0.35051737    -0.01800
C176        C  0.25256429  0.05958611  0.35540445     0.07880
C177        C  0.22307216  0.04360060  0.35117578    -0.01910
C178        C  0.22234822  0.01061958  0.34415353    -0.01920
C179        C  0.25124351  0.49333258  0.34186741     0.08010
C180        C  0.28088840  0.01022336  0.34383151    -0.02110
Br181      Br  0.32116721  0.48821551  0.33981933    -0.00660
Br182      Br  0.32154468  0.06648567  0.35448839    -0.00730
Br183      Br  0.18157532  0.48941087  0.33762468    -0.00690
Br184      Br  0.18364078  0.06671452  0.35651996    -0.00680
C185        C  0.11123115  0.33892792  0.31775480    -0.01800
C186        C  0.12566758  0.36266370  0.33476251     0.07880
C187        C  0.10518508  0.38545053  0.34755002    -0.01910
C188        C  0.07283944  0.38783807  0.34015429    -0.01920
C189        C  0.05993588  0.36620860  0.32145497     0.08010
C190        C  0.07845499  0.34038334  0.31197020    -0.02110
Br191      Br  0.05832359  0.30657457  0.29093791    -0.00660
Br192      Br  0.13472274  0.30393468  0.30104628    -0.00730
Br193      Br  0.04652429  0.42183178  0.35474278    -0.00690
Br194      Br  0.11984940  0.41358644  0.37558144    -0.00680
C195        C  0.38652489  0.34132766  0.32045495    -0.01800
C196        C  0.37375444  0.36632916  0.33615546     0.07880
C197        C  0.39398530  0.39085994  0.34647299    -0.01910
C198        C  0.42656193  0.39178479  0.33940283    -0.01920
C199        C  0.43894558  0.36769426  0.32246218     0.08010
C200        C  0.41923228  0.34153124  0.31421936    -0.02110
Br201      Br  0.43687174  0.30639930  0.29365670    -0.00660
Br202      Br  0.35855897  0.30858075  0.30530760    -0.00730
Br203      Br  0.45345156  0.42723734  0.35136412    -0.00690
Br204      Br  0.37653654  0.42381572  0.36931394    -0.00680
C205        C  0.47371177  0.05603556  0.07870384    -0.01800
C206        C  0.50305518  0.07128022  0.07341466     0.07880
C207        C  0.03192291  0.05479911  0.07591180    -0.01910
C208        C  0.03139185  0.02226180  0.08171832    -0.01920
C209        C  0.50192132  0.50635185  0.08593988     0.08010
C210        C  0.47312150  0.02371409  0.08510928    -0.02110
Br211      Br  0.43260030  0.50320981  0.09200513    -0.00660
Br212      Br  0.43418489  0.07899505  0.07550271    -0.00730
Br213      Br  0.07080595  0.49883740  0.08034504    -0.00690
Br214      Br  0.07206280  0.07664860  0.06992087    -0.00680
C215        C  0.46975192  0.24157720  0.08368579    -0.01800
C216        C  0.49924884  0.25809732  0.08780155     0.07880
C217        C  0.02799212  0.24058371  0.08766322    -0.01910
C218        C  0.02759051  0.20752000  0.08089169    -0.01920
C219        C  0.49845558  0.19176906  0.07468381     0.08010
C220        C  0.46946652  0.20842668  0.07720618    -0.02110
Br221      Br  0.42955420  0.18583927  0.07029223    -0.00660
Br222      Br  0.42974431  0.26431632  0.08442070    -0.00730
Br223      Br  0.06714223  0.18407990  0.07842874    -0.00690
Br224      Br  0.06799438  0.26173206  0.09680089    -0.00680
C225        C  0.50023549  0.35523246  0.20071725    -0.01800
C226        C  0.49919465  0.38508681  0.18919450     0.07880
C227        C  0.99824462  0.41380389  0.20470080    -0.01910
C228        C  0.99855189  0.41255789  0.23137842    -0.01920
C229        C  0.49909546  0.38274968  0.24266596     0.08010
C230        C  0.49947438  0.35414033  0.22729430    -0.02110
Br231      Br  0.49841977  0.31318461  0.24266413    -0.00660
Br232      Br  0.50472983  0.31549368  0.18045504    -0.00730
Br233      Br  0.99784882  0.45156526  0.25267538    -0.00690
Br234      Br  0.99486393  0.45487203  0.18972273    -0.00680
C235        C  0.24941421  0.33847831  0.19920219    -0.01800
C236        C  0.24876776  0.36820611  0.18782102     0.07880
C237        C  0.24777941  0.39690363  0.20304782    -0.01910
C238        C  0.24765256  0.39598183  0.22964813    -0.01920
C239        C  0.24925877  0.36621708  0.24125087     0.08010
C240        C  0.24987721  0.33739385  0.22586333    -0.02110
Br241      Br  0.25299838  0.29635600  0.24094724    -0.00660
Br242      Br  0.24980737  0.29933618  0.17804123    -0.00730
Br243      Br  0.24344862  0.43574294  0.24989491    -0.00690
Br244      Br  0.24670692  0.43765895  0.18736951    -0.00680
C245        C  0.33096993  0.40807997  0.11762877    -0.01800
C246        C  0.31136051  0.38202289  0.10894380     0.07880
C247        C  0.32379547  0.35852185  0.09149576    -0.01910
C248        C  0.35627471  0.36000782  0.08420967    -0.01920
C249        C  0.37640806  0.38440763  0.09486434     0.08010
C250        C  0.36360749  0.40875144  0.11119363    -0.02110
Br251      Br  0.39145677  0.44128817  0.12676434    -0.00660
Br252      Br  0.31327808  0.44259038  0.13887403    -0.00730
Br253      Br  0.37367832  0.32810940  0.06042097    -0.00690
Br254      Br  0.29717739  0.32305896  0.07907762    -0.00680
C255        C  0.14098590  0.41170607  0.10721126    -0.01800
C256        C  0.12499280  0.38509179  0.09455693     0.07880
C257        C  0.14371781  0.35830532  0.08583609    -0.01910
C258        C  0.17627851  0.35664216  0.09270613    -0.01920
C259        C  0.19066178  0.38178069  0.10747575     0.08010
C260        C  0.17364213  0.40998914  0.11326751    -0.02110
Br261      Br  0.19549054  0.44620502  0.13016179    -0.00660
Br262      Br  0.11943836  0.45118519  0.11699821    -0.00730
Br263      Br  0.20108357  0.31909986  0.08320979    -0.00690
Br264      Br  0.12585204  0.32252985  0.06554244    -0.00680
C265        C  0.32638850  0.15161275  0.83815175    -0.01800
C266        C  0.31046447  0.12567495  0.82535411     0.07880
C267        C  0.32642484  0.09642132  0.82058264    -0.01910
C268        C  0.35934163  0.09444328  0.82553800    -0.01920
C269        C  0.37589954  0.12110645  0.83678631     0.08010
C270        C  0.35899367  0.14906437  0.84436106    -0.02110
Br271      Br  0.38052291  0.18363853  0.86325382    -0.00660
Br272      Br  0.30368041  0.19076453  0.84627933    -0.00730
Br273      Br  0.38227590  0.05640911  0.81443143    -0.00690
Br274      Br  0.30331682  0.05945191  0.80629251    -0.00680
C275        C  0.14447182  0.13305310  0.84687033    -0.01800
C276        C  0.12433711  0.10964869  0.83395297     0.07880
C277        C  0.13922115  0.08601615  0.81739115    -0.01910
C278        C  0.17210983  0.08845296  0.81165452    -0.01920
C279        C  0.19039994  0.11471891  0.82141804     0.08010
C280        C  0.17696930  0.13617414  0.83986737    -0.02110
Br281      Br  0.20255991  0.17147627  0.85433394    -0.00660
Br282      Br  0.12922485  0.16121377  0.87460429    -0.00730
Br283      Br  0.19267421  0.05572806  0.79010635    -0.00690
Br284      Br  0.11614900  0.04956402  0.80186244    -0.00680
C285        C  0.02452326  0.14417771  0.97912492    -0.01800
C286        C  0.50112741  0.12745651  0.99267845     0.07880
C287        C  0.47755833  0.10911108  0.97936099    -0.01910
C288        C  0.47826265  0.10594620  0.95263455    -0.01920
C289        C  0.00084763  0.12400303  0.93852539     0.08010
C290        C  0.02366625  0.14376716  0.95237080    -0.02110
Br291      Br  0.05402403  0.17166726  0.93604098    -0.00660
Br292      Br  0.05894619  0.16668731  0.99734817    -0.00730
Br293      Br  0.44837489  0.07514197  0.93679258    -0.00690
Br294      Br  0.44302479  0.08930516  0.99788387    -0.00680
C295        C  0.47172458  0.36852040  0.97845828    -0.01800
C296        C  0.50058803  0.37387311  0.99204483     0.07880
C297        C  0.02977171  0.37706475  0.97862552    -0.01910
C298        C  0.02997079  0.37510607  0.95191801    -0.01920
C299        C  0.00111345  0.37032448  0.93852663     0.08010
C300        C  0.47203331  0.36695470  0.95174019    -0.02110
Br301      Br  0.43265390  0.36033942  0.93301998    -0.00660
Br302      Br  0.43184524  0.36176023  0.99621615    -0.00730
Br303      Br  0.06973068  0.37913284  0.93343025    -0.00690
Br304      Br  0.06944374  0.38588454  0.99653391    -0.00680
C305        C  0.47657181  0.29167699  0.84886585    -0.01800
C306        C  0.00523851  0.30743650  0.85623858     0.07880
C307        C  0.03441028  0.29099581  0.85433147    -0.01910
C308        C  0.03463512  0.25798437  0.84729343    -0.01920
C309        C  0.00546170  0.24113200  0.84254282     0.08010
C310        C  0.47657039  0.25864473  0.84186739    -0.02110
Br311      Br  0.43620674  0.23787055  0.83328734    -0.00660
Br312      Br  0.43691619  0.31512153  0.85031402    -0.00730
Br313      Br  0.07513894  0.23629656  0.84370994    -0.00690
Br314      Br  0.07387672  0.31375787  0.86242713    -0.00680
C315        C  0.02713898  0.44469898  0.85382038    -0.01800
C316        C  0.99854552  0.42804073  0.85889161     0.07880
C317        C  0.46888401  0.44309420  0.85627143    -0.01910
C318        C  0.46781750  0.47540981  0.84991803    -0.01960
C319        C  0.99655075  0.99293708  0.84635043     0.08010
C320        C  0.02626733  0.47714270  0.84779181    -0.02110
Br321      Br  0.06621400  0.00038179  0.84446368    -0.00660
Br322      Br  0.06763025  0.42336951  0.85684638    -0.00730
Br323      Br  0.42681300  0.99536684  0.84631117    -0.00690
Br324      Br  0.42979055  0.41951823  0.86246882    -0.00680
C325        C  0.01995133  0.13689003  0.70323670    -0.01800
C326        C  0.00166393  0.11466624  0.68791888     0.07880
C327        C  0.48350102  0.09055799  0.69951477    -0.01910
C328        C  0.48267022  0.08953288  0.72615725    -0.01920
C329        C  0.00080440  0.11179681  0.74120955     0.08010
C330        C  0.01994820  0.13496766  0.72975086    -0.02110
Br331      Br  0.04637235  0.16403630  0.75061963    -0.00660
Br332      Br  0.04350940  0.17152143  0.68850527    -0.00730
Br333      Br  0.45582335  0.05848748  0.74223855    -0.00690
Br334      Br  0.46033043  0.05836970  0.67905218    -0.00680
C335        C  0.10689304  0.10282448  0.58964807    -0.01800
C336        C  0.12463645  0.13168050  0.59504661     0.07880
C337        C  0.10786885  0.15966537  0.60347934    -0.01910
C338        C  0.07492193  0.15790513  0.60898063    -0.01920
C339        C  0.05850086  0.12833605  0.60649342     0.08010
C340        C  0.07401006  0.10123000  0.59570705    -0.02110
Br341      Br  0.05007274  0.06155142  0.59046628    -0.00660
Br342      Br  0.12693748  0.06442940  0.57551506    -0.00730
Br343      Br  0.05215450  0.19579547  0.62098870    -0.00690
Br344      Br  0.12925018  0.20091660  0.60754959    -0.00680
C345        C  0.39226757  0.11343036  0.58656273    -0.01800
C346        C  0.37246376  0.13676472  0.59850044     0.07880
C347        C  0.38579953  0.16066453  0.61519558    -0.01910
C348        C  0.41862072  0.16026277  0.62096986    -0.01920
C349        C  0.43792655  0.13502303  0.61100213     0.08010
C350        C  0.42488881  0.11216386  0.59308949    -0.02110
Br351      Br  0.45075869  0.07755187  0.57900939    -0.00660
Br352      Br  0.37431429  0.08280113  0.56177153    -0.00730
Br353      Br  0.43707115  0.19401494  0.64295192    -0.00690
Br354      Br  0.35858145  0.19266755  0.63146575    -0.00680
C355        C  0.27551396  0.14300504  0.47825358    -0.01800
C356        C  0.25239336  0.12525011  0.49211409     0.07880
C357        C  0.22958939  0.10579551  0.47794600    -0.01910
C358        C  0.22875116  0.10600196  0.45121861    -0.01920
C359        C  0.25217227  0.12297366  0.43788501     0.08010
C360        C  0.27597304  0.14070924  0.45146494    -0.02110
Br361      Br  0.31046279  0.16088153  0.43318128    -0.00660
Br362      Br  0.30725813  0.17139215  0.49456345    -0.00730
Br363      Br  0.19414666  0.08408488  0.43276192    -0.00690
Br364      Br  0.19919272  0.07736310  0.49370985    -0.00680
C365        C  0.22933472  0.15854479  0.70566127    -0.01800
C366        C  0.25256717  0.14183785  0.69048010     0.07880
C367        C  0.27773636  0.12634554  0.70286042    -0.01910
C368        C  0.27688100  0.12341325  0.72930508    -0.01920
C369        C  0.25399399  0.14040046  0.74443724     0.08010
C370        C  0.23148892  0.15951955  0.73239806    -0.02110
Br371      Br  0.20422799  0.18832939  0.75241988    -0.00660
Br372      Br  0.19296538  0.17879627  0.69081472    -0.00730
Br373      Br  0.30570037  0.09336847  0.74374625    -0.00690
Br374      Br  0.31518668  0.11059205  0.68447827    -0.00680
C375        C  0.27746176  0.37941135  0.45202621    -0.01800
C376        C  0.24825976  0.37812477  0.43838235     0.07880
C377        C  0.21886276  0.37853684  0.45192288    -0.01910
C378        C  0.21881753  0.37991903  0.47865113    -0.01920
C379        C  0.24791053  0.38011846  0.49198405     0.08010
C380        C  0.27717790  0.37995356  0.47872672    -0.02110
Br381      Br  0.31688866  0.38041600  0.49740336    -0.00660
Br382      Br  0.31814134  0.38219804  0.43457834    -0.00730
Br383      Br  0.17888125  0.38137634  0.49727635    -0.00690
Br384      Br  0.17834944  0.37533813  0.43432541    -0.00680
C385        C  0.27105762  0.30880458  0.58324150    -0.01800
C386        C  0.24397190  0.32079004  0.57115215     0.07880
C387        C  0.21672673  0.30088365  0.56709679    -0.01910
C388        C  0.21754852  0.26843688  0.57302549    -0.01920
C389        C  0.24514299  0.25603929  0.58404294     0.08010
C390        C  0.27150340  0.27652405  0.58986636    -0.02110
Br391      Br  0.30845230  0.26009325  0.60647910    -0.00660
Br392      Br  0.30837174  0.33586759  0.58913181    -0.00730
Br393      Br  0.18216945  0.24027775  0.56346032    -0.00690
Br394      Br  0.17849238  0.31800307  0.55271462    -0.00680
C395        C  0.22100214  0.45675896  0.58347687    -0.01800
C396        C  0.24937364  0.44204883  0.57463290     0.07880
C397        C  0.27826350  0.45982117  0.57471303    -0.01910
C398        C  0.27822528  0.49297331  0.58112485    -0.01920
C399        C  0.24922543  0.00839748  0.58775745     0.08010
C400        C  0.22101862  0.48984954  0.59030322    -0.02110
Br401      Br  0.18257791  0.00967865  0.60349667    -0.00660
Br402      Br  0.18176229  0.43196609  0.58455746    -0.00730
Br403      Br  0.31753553  0.01738346  0.57858020    -0.00690
Br404      Br  0.31758664  0.43877058  0.56463876    -0.00680
C405        C  0.24575948  0.85198542  0.55900003     0.03180
C406        C  0.24669620  0.85177858  0.53237483    -0.12970
C407        C  0.24770030  0.88054490  0.51995695     0.00680
C408        C  0.24832064  0.90972848  0.53413488    -0.11500
C409        C  0.24790413  0.91040452  0.56073473     0.03170
C410        C  0.24640079  0.88146742  0.57326393    -0.10920
H411        H  0.24634594  0.82915814  0.52128910     0.08760
H412        H  0.24924214  0.93202800  0.52443676     0.06290
H413        H  0.24581395  0.88188936  0.59383424     0.06140
Zn414      Zn  0.22137785  0.60546468  0.56977769     1.49720
Zn415      Zn  0.27771034  0.65797520  0.57033042     1.49360
Zn416      Zn  0.22321802  0.66216372  0.61312799     1.49110
Zn417      Zn  0.27428738  0.60646038  0.61311476     1.49480
O418        O  0.24915285  0.63302726  0.59150888    -1.84080
O419        O  0.23060966  0.61190398  0.53281225    -0.74710
O420        O  0.26771076  0.70510028  0.57436834    -0.74530
O421        O  0.17626188  0.65005874  0.60943554    -0.74050
O422        O  0.27189892  0.64494755  0.53321418    -0.74730
O423        O  0.17466820  0.61513997  0.57633876    -0.74320
O424        O  0.22836679  0.70806612  0.60295859    -0.74910
O425        O  0.26376149  0.61605358  0.64991445    -0.74300
O426        O  0.32409594  0.65259642  0.57962945    -0.75060
O427        O  0.23568963  0.66054091  0.65019112    -0.74450
O428        O  0.32148581  0.61587137  0.60876507    -0.74910
O429        O  0.26686612  0.55925279  0.60524078    -0.74820
O430        O  0.22893011  0.55839364  0.57575876    -0.74610
C431        C  0.25168806  0.62738109  0.52082599     0.77180
C432        C  0.24731703  0.72125412  0.58751674     0.77670
C433        C  0.16038188  0.63239402  0.59338245     0.76630
C434        C  0.25049369  0.63947996  0.66206781     0.77010
C435        C  0.33749879  0.63480829  0.59523232     0.78140
C436        C  0.24802978  0.54389067  0.58995797     0.77190
C437        C  0.46970795  0.62980211  0.62242631     0.03180
C438        C  0.99824436  0.63089517  0.60820135    -0.12970
C439        C  0.02759195  0.62462046  0.61976835     0.00680
C440        C  0.02830023  0.61714641  0.64536037    -0.11500
C441        C  0.00029119  0.61780890  0.66002361     0.03170
C442        C  0.47107537  0.62373022  0.64833645    -0.10920
H443        H  0.99766194  0.63683540  0.58843553     0.08760
H444        H  0.05103992  0.61245837  0.65422151     0.06290
H445        H  0.44925243  0.62410335  0.65955881     0.06140
C446        C  0.99994380  0.89721602  0.87129802     0.03180
C447        C  0.99954750  0.89785022  0.89788918    -0.12970
C448        C  0.00133508  0.86935964  0.91056167     0.00680
C449        C  0.00353958  0.84006340  0.89663261    -0.11500
C450        C  0.00395246  0.83909310  0.87002053     0.03170
C451        C  0.00215358  0.86775765  0.85725201    -0.10920
H452        H  0.99796239  0.92057542  0.90873158     0.08760
H453        H  0.00479003  0.81794911  0.90651123     0.06290
H454        H  0.00238871  0.86713685  0.83667286     0.06140
Zn455      Zn  0.47485604  0.64409014  0.81799611     1.49720
Zn456      Zn  0.02343128  0.58557238  0.81755230     1.49360
Zn457      Zn  0.02938139  0.64265990  0.86018420     1.49110
Zn458      Zn  0.47064746  0.59343762  0.86131117     1.49480
O459        O  0.99953555  0.61646511  0.83918573    -1.84080
O460        O  0.48332444  0.63355059  0.78099393    -0.74710
O461        O  0.07084058  0.59227750  0.82256148    -0.74530
O462        O  0.02247943  0.68999587  0.85530282    -0.74050
O463        O  0.01491229  0.59091099  0.78045077    -0.74730
O464        O  0.48622873  0.69069454  0.82477173    -0.74320
O465        O  0.07532543  0.63187141  0.85148419    -0.74910
O466        O  0.47818704  0.60702325  0.89797979    -0.74300
O467        O  0.01321343  0.54000141  0.82592891    -0.75060
O468        O  0.02272504  0.63546173  0.89742375    -0.74450
O469        O  0.47852516  0.54567342  0.85782830    -0.74910
O470        O  0.42427793  0.60151013  0.85332199    -0.74820
O471        O  0.42748066  0.63857016  0.82448767    -0.74610
C472        C  0.99929665  0.61178762  0.76903778     0.77180
C473        C  0.08836089  0.61108813  0.83639810     0.77670
C474        C  0.00491873  0.70539854  0.84052639     0.76630
C475        C  0.00058421  0.62211544  0.90986615     0.77010
C476        C  0.99578213  0.52801358  0.84297359     0.78140
C477        C  0.41110116  0.62056902  0.83854975     0.77190
C478        C  0.27953961  0.63042377  0.81274943     0.03180
C479        C  0.28003036  0.63965290  0.78754316    -0.12970
C480        C  0.25243110  0.63674425  0.77248697     0.00680
C481        C  0.22348148  0.62801396  0.78401421    -0.11500
C482        C  0.22203714  0.62178057  0.80991968     0.03170
C483        C  0.25045008  0.62182615  0.82407176    -0.10920
H484        H  0.30255362  0.64688595  0.77915277     0.08760
H485        H  0.20187649  0.62563069  0.77272654     0.06290
H486        H  0.25000140  0.61476593  0.84357497     0.06140
C487        C  0.22148186  0.87701300  0.12033863     0.03180
C488        C  0.22091945  0.87178858  0.14641103    -0.12970
C489        C  0.24945073  0.86960433  0.15990175     0.00680
C490        C  0.27873358  0.87169653  0.14713440    -0.11500
C491        C  0.27974196  0.87726383  0.12109889     0.03170
C492        C  0.25096730  0.87996733  0.10766240    -0.10920
H493        H  0.19821283  0.87058221  0.15639449     0.08760
H494        H  0.30085197  0.87027195  0.15769888     0.06290
H495        H  0.25150554  0.88501916  0.08770028     0.06140
Zn496      Zn  0.47275306  0.90713399  0.06868719     1.49720
Zn497      Zn  0.02583833  0.91178080  0.11271914     1.49360
Zn498      Zn  0.47297217  0.85589407  0.11150536     1.49110
Zn499      Zn  0.02828124  0.85508574  0.06938243     1.49480
O500        O  0.49998483  0.88254134  0.09054885    -1.84080
O501        O  0.48275968  0.95421481  0.07366238    -0.74710
O502        O  0.01696958  0.90548095  0.14993534    -0.74530
O503        O  0.42643988  0.86375425  0.10554058    -0.74050
O504        O  0.01843571  0.95839393  0.10489368    -0.74730
O505        O  0.42570770  0.90080018  0.07666996    -0.74320
O506        O  0.48086363  0.86599009  0.14854202    -0.74910
O507        O  0.01997841  0.80835599  0.07570406    -0.74300
O508        O  0.07265168  0.90249701  0.10751076    -0.75060
O509        O  0.48101700  0.80883303  0.10451459    -0.74450
O510        O  0.07509928  0.86568974  0.07607756    -0.74910
O511        O  0.02002276  0.85998200  0.03225023    -0.74820
O512        O  0.48045290  0.89501158  0.03165483    -0.74610
C513        C  0.50089297  0.97114268  0.08852234     0.77180
C514        C  0.49885744  0.88581279  0.16108793     0.77670
C515        C  0.41134052  0.88254769  0.09176147     0.76630
C516        C  0.50033935  0.79364561  0.08971236     0.77010
C517        C  0.08910039  0.88456004  0.09233684     0.78140
C518        C  0.50027894  0.87636817  0.02014213     0.77190
C519        C  0.50309145  0.60191263  0.06066808     0.03180
C520        C  0.50432522  0.60086208  0.03407023    -0.12970
C521        C  0.50135177  0.62894803  0.02088366     0.00680
C522        C  0.49822274  0.65835388  0.03465214    -0.11500
C523        C  0.49888984  0.65988421  0.06126438     0.03170
C524        C  0.50082680  0.63155035  0.07437356    -0.10920
H525        H  0.50674133  0.57796375  0.02359593     0.08760
H526        H  0.49585797  0.68025443  0.02463225     0.06290
H527        H  0.50055879  0.63255408  0.09495886     0.06140
C528        C  0.02861193  0.87210977  0.30941151     0.03180
C529        C  0.02824685  0.87856871  0.28350731    -0.12970
C530        C  0.99927581  0.88110480  0.27061161     0.00680
C531        C  0.47042816  0.87865017  0.28390945    -0.11500
C532        C  0.47025545  0.87234471  0.30980884     0.03170
C533        C  0.99943388  0.86882499  0.32254956    -0.10920
H534        H  0.05060060  0.88012730  0.27307731     0.08760
H535        H  0.44797376  0.88037786  0.27384013     0.06290
H536        H  0.99940882  0.86287397  0.34232175     0.06140
Zn537      Zn  0.22160535  0.89653214  0.36031207     1.49720
Zn538      Zn  0.27715978  0.84456358  0.36211704     1.49360
Zn539      Zn  0.22556247  0.83867216  0.31791097     1.49110
Zn540      Zn  0.27745457  0.89516557  0.31856393     1.49480
O541        O  0.25045366  0.86882172  0.33979250    -1.84080
O542        O  0.22908859  0.89193541  0.39779511    -0.74710
O543        O  0.26780206  0.79737614  0.35742525    -0.74530
O544        O  0.17896194  0.84555580  0.32433807    -0.74050
O545        O  0.26841905  0.85678361  0.39883029    -0.74730
O546        O  0.17478794  0.88616412  0.35232025    -0.74320
O547        O  0.23488333  0.79229510  0.32451989    -0.74910
O548        O  0.26902677  0.88516867  0.28153026    -0.74300
O549        O  0.32425507  0.85109364  0.35457050    -0.75060
O550        O  0.23255442  0.84603841  0.28076497    -0.74450
O551        O  0.32394049  0.88679495  0.32460095    -0.74910
O552        O  0.26959508  0.94236663  0.32534536    -0.74820
O553        O  0.23061269  0.94304402  0.35406271    -0.74610
C554        C  0.24859333  0.87555006  0.41018118     0.77180
C555        C  0.25141287  0.77993899  0.34165844     0.77670
C556        C  0.16159108  0.86470524  0.33765078     0.76630
C557        C  0.25044047  0.86558494  0.26931573     0.77010
C558        C  0.33881930  0.86855564  0.33900593     0.78140
C559        C  0.25028767  0.95770344  0.34006672     0.77190
C560        C  0.24969655  0.64936898  0.37000750     0.03180
C561        C  0.25121293  0.61981107  0.35612939    -0.12970
C562        C  0.25312181  0.59134455  0.36903261     0.00680
C563        C  0.25449726  0.59262499  0.39562223    -0.11500
C564        C  0.25190820  0.62194403  0.40963766     0.03170
C565        C  0.24905174  0.65022982  0.39663886    -0.10920
H566        H  0.25101422  0.61897685  0.33554596     0.08760
H567        H  0.25678775  0.57057032  0.40545027     0.06290
H568        H  0.24713947  0.67308336  0.40724973     0.06140
C569        C  0.27978390  0.69649110  0.35492448    -0.01800
C570        C  0.25043212  0.68002904  0.35729483     0.07880
C571        C  0.22168425  0.69487629  0.35107452    -0.01910
C572        C  0.22197199  0.72717867  0.34449580    -0.01920
C573        C  0.25123809  0.74466524  0.34405972     0.08010
C574        C  0.28025630  0.72873151  0.34842009    -0.02110
Br575      Br  0.32092428  0.75084039  0.34590650    -0.00660
Br576      Br  0.31931058  0.67494346  0.36158231    -0.00730
Br577      Br  0.18175672  0.74784584  0.33880368    -0.00690
Br578      Br  0.18182949  0.67118698  0.35296782    -0.00680
C579        C  0.28139100  0.54334578  0.35051730    -0.01800
C580        C  0.25256440  0.55958612  0.35540442     0.07880
C581        C  0.22307225  0.54360062  0.35117581    -0.01910
C582        C  0.22234829  0.51061959  0.34415356    -0.01920
C583        C  0.25124345  0.99333258  0.34186740     0.08010
C584        C  0.28088847  0.51022335  0.34383147    -0.02110
Br585      Br  0.32116715  0.98821553  0.33981941    -0.00660
Br586      Br  0.32154479  0.56648566  0.35448826    -0.00730
Br587      Br  0.18157527  0.98941084  0.33762458    -0.00690
Br588      Br  0.18364089  0.56671456  0.35652003    -0.00680
C589        C  0.11123111  0.83892785  0.31775484    -0.01800
C590        C  0.12566755  0.86266367  0.33476250     0.07880
C591        C  0.10518507  0.88545054  0.34754998    -0.01910
C592        C  0.07283943  0.88783807  0.34015424    -0.01920
C593        C  0.05993586  0.86620856  0.32145495     0.08010
C594        C  0.07845495  0.84038328  0.31197022    -0.02110
Br595      Br  0.05832354  0.80657448  0.29093796    -0.00660
Br596      Br  0.13472268  0.80393453  0.30104641    -0.00730
Br597      Br  0.04652429  0.92183182  0.35474268    -0.00690
Br598      Br  0.11984941  0.91358652  0.37558134    -0.00680
C599        C  0.38652486  0.84132770  0.32045485    -0.01800
C600        C  0.37375442  0.86632918  0.33615539     0.07880
C601        C  0.39398529  0.89085994  0.34647294    -0.01910
C602        C  0.42656192  0.89178478  0.33940278    -0.01920
C603        C  0.43894556  0.86769427  0.32246211     0.08010
C604        C  0.41923225  0.84153127  0.31421928    -0.02110
Br605      Br  0.43687169  0.80639933  0.29365661    -0.00660
Br606      Br  0.35855892  0.80858083  0.30530747    -0.00730
Br607      Br  0.45345157  0.92723731  0.35136410    -0.00690
Br608      Br  0.37653654  0.92381570  0.36931391    -0.00680
C609        C  0.47371181  0.55603557  0.07870372    -0.01800
C610        C  0.50305524  0.57128021  0.07341455     0.07880
C611        C  0.03192296  0.55479910  0.07591172    -0.01910
C612        C  0.03139188  0.52226179  0.08171828    -0.01920
C613        C  0.50192131  0.00635183  0.08593992     0.08010
C614        C  0.47312152  0.52371412  0.08510920    -0.02110
Br615      Br  0.43260030  0.00320974  0.09200520    -0.00660
Br616      Br  0.43418495  0.57899507  0.07550254    -0.00730
Br617      Br  0.07080594  0.99883742  0.08034503    -0.00690
Br618      Br  0.07206287  0.57664855  0.06992078    -0.00680
C619        C  0.46975197  0.74157717  0.08368568    -0.01800
C620        C  0.49924889  0.75809730  0.08780146     0.07880
C621        C  0.02799216  0.74058369  0.08766314    -0.01910
C622        C  0.02759056  0.70751998  0.08089159    -0.01920
C623        C  0.49845564  0.69176905  0.07468369     0.08010
C624        C  0.46946658  0.70842666  0.07720605    -0.02110
Br625      Br  0.42955426  0.68583925  0.07029206    -0.00660
Br626      Br  0.42974436  0.76431629  0.08442058    -0.00730
Br627      Br  0.06714229  0.68407990  0.07842865    -0.00690
Br628      Br  0.06799442  0.76173205  0.09680084    -0.00680
C629        C  0.50023553  0.85523240  0.20071720    -0.01800
C630        C  0.49919468  0.88508675  0.18919445     0.07880
C631        C  0.99824464  0.91380383  0.20470075    -0.01910
C632        C  0.99855192  0.91255784  0.23137837    -0.01920
C633        C  0.49909549  0.88274963  0.24266591     0.08010
C634        C  0.49947442  0.85414027  0.22729426    -0.02110
Br635      Br  0.49841983  0.81318455  0.24266409    -0.00660
Br636      Br  0.50472987  0.81549362  0.18045500    -0.00730
Br637      Br  0.99784883  0.95156521  0.25267532    -0.00690
Br638      Br  0.99486395  0.95487197  0.18972268    -0.00680
C639        C  0.24941421  0.83847830  0.19920215    -0.01800
C640        C  0.24876775  0.86820609  0.18782097     0.07880
C641        C  0.24777939  0.89690361  0.20304776    -0.01910
C642        C  0.24765253  0.89598182  0.22964807    -0.01920
C643        C  0.24925875  0.86621707  0.24125082     0.08010
C644        C  0.24987721  0.83739384  0.22586328    -0.02110
Br645      Br  0.25299839  0.79635600  0.24094720    -0.00660
Br646      Br  0.24980739  0.79933616  0.17804119    -0.00730
Br647      Br  0.24344857  0.93574293  0.24989485    -0.00690
Br648      Br  0.24670690  0.93765893  0.18736945    -0.00680
C649        C  0.33096996  0.90807992  0.11762875    -0.01800
C650        C  0.31136054  0.88202286  0.10894377     0.07880
C651        C  0.32379549  0.85852183  0.09149570    -0.01910
C652        C  0.35627473  0.86000780  0.08420962    -0.01920
C653        C  0.37640809  0.88440760  0.09486431     0.08010
C654        C  0.36360753  0.90875138  0.11119362    -0.02110
Br655      Br  0.39145682  0.94128808  0.12676437    -0.00660
Br656      Br  0.31327813  0.94259032  0.13887404    -0.00730
Br657      Br  0.37367833  0.82810941  0.06042090    -0.00690
Br658      Br  0.29717741  0.82305897  0.07907754    -0.00680
C659        C  0.14098594  0.91170605  0.10721118    -0.01800
C660        C  0.12499283  0.88509176  0.09455687     0.07880
C661        C  0.14371783  0.85830528  0.08583603    -0.01910
C662        C  0.17627854  0.85664213  0.09270608    -0.01920
C663        C  0.19066181  0.88178067  0.10747568     0.08010
C664        C  0.17364217  0.90998912  0.11326743    -0.02110
Br665      Br  0.19549058  0.94620501  0.13016170    -0.00660
Br666      Br  0.11943839  0.95118517  0.11699812    -0.00730
Br667      Br  0.20108360  0.81909982  0.08320975    -0.00690
Br668      Br  0.12585205  0.82252980  0.06554240    -0.00680
C669        C  0.32638876  0.65161282  0.83815173    -0.01800
C670        C  0.31046470  0.62567505  0.82535408     0.07880
C671        C  0.32642505  0.59642141  0.82058256    -0.01910
C672        C  0.35934185  0.59444335  0.82553788    -0.01920
C673        C  0.37589979  0.62110651  0.83678619     0.08010
C674        C  0.35899394  0.64906441  0.84436100    -0.02110
Br675      Br  0.38052322  0.68363853  0.86325378    -0.00660
Br676      Br  0.30368069  0.69076459  0.84627938    -0.00730
Br677      Br  0.38227609  0.55640918  0.81443125    -0.00690
Br678      Br  0.30331700  0.55945204  0.80629242    -0.00680
C679        C  0.14447206  0.63305300  0.84687029    -0.01800
C680        C  0.12433735  0.60964866  0.83395286     0.07880
C681        C  0.13922139  0.58601620  0.81739096    -0.01910
C682        C  0.17211007  0.58845304  0.81165433    -0.01920
C683        C  0.19040017  0.61471895  0.82141793     0.08010
C684        C  0.17696954  0.63617409  0.83986732    -0.02110
Br685      Br  0.20256013  0.67147618  0.85433398    -0.00660
Br686      Br  0.12922512  0.66121344  0.87460440    -0.00730
Br687      Br  0.19267445  0.55572822  0.79010608    -0.00690
Br688      Br  0.11614923  0.54956414  0.80186213    -0.00680
C689        C  0.02452345  0.64417775  0.97912480    -0.01800
C690        C  0.50112761  0.62745651  0.99267832     0.07880
C691        C  0.47755858  0.60911103  0.97936084    -0.01910
C692        C  0.47826294  0.60594615  0.95263441    -0.01920
C693        C  0.00084788  0.62400305  0.93852527     0.08010
C694        C  0.02366645  0.64376722  0.95237069    -0.02110
Br695      Br  0.05402416  0.67166740  0.93604088    -0.00660
Br696      Br  0.05894633  0.66668740  0.99734808    -0.00730
Br697      Br  0.44837531  0.57514181  0.93679241    -0.00690
Br698      Br  0.44302503  0.58930508  0.99788369    -0.00680
C699        C  0.47172458  0.86852038  0.97845824    -0.01800
C700        C  0.50058803  0.87387309  0.99204478     0.07880
C701        C  0.02977171  0.87706471  0.97862546    -0.01910
C702        C  0.02997078  0.87510600  0.95191795    -0.01920
C703        C  0.00111343  0.87032442  0.93852658     0.08010
C704        C  0.47203330  0.86695466  0.95174015    -0.02110
Br705      Br  0.43265388  0.86033938  0.93301994    -0.00660
Br706      Br  0.43184523  0.86176025  0.99621612    -0.00730
Br707      Br  0.06973067  0.87913275  0.93343018    -0.00690
Br708      Br  0.06944375  0.88588449  0.99653384    -0.00680
C709        C  0.47657189  0.79167694  0.84886574    -0.01800
C710        C  0.00523857  0.80743647  0.85623850     0.07880
C711        C  0.03441036  0.79099582  0.85433140    -0.01910
C712        C  0.03463525  0.75798438  0.84729334    -0.01920
C713        C  0.00546185  0.74113199  0.84254268     0.08010
C714        C  0.47657052  0.75864469  0.84186724    -0.02110
Br715      Br  0.43620692  0.73787047  0.83328711    -0.00660
Br716      Br  0.43691624  0.81512142  0.85031390    -0.00730
Br717      Br  0.07513910  0.73629662  0.84370987    -0.00690
Br718      Br  0.07387677  0.81375791  0.86242711    -0.00680
C719        C  0.02713888  0.94469899  0.85382037    -0.01800
C720        C  0.99854543  0.92804069  0.85889158     0.07880
C721        C  0.46888391  0.94309414  0.85627141    -0.01910
C722        C  0.46781738  0.97540976  0.84991803    -0.01960
C723        C  0.99655088  0.49293710  0.84635041     0.08010
C724        C  0.02626721  0.97714271  0.84779184    -0.02110
Br725      Br  0.06621415  0.50038172  0.84446357    -0.00660
Br726      Br  0.06763017  0.92336955  0.85684637    -0.00730
Br727      Br  0.42681314  0.49536691  0.84631115    -0.00690
Br728      Br  0.42979048  0.91951813  0.86246878    -0.00680
C729        C  0.01995183  0.63688973  0.70323656    -0.01800
C730        C  0.00166445  0.61466591  0.68791875     0.07880
C731        C  0.48350152  0.59055769  0.69951465    -0.01910
C732        C  0.48267066  0.58953264  0.72615713    -0.01920
C733        C  0.00080479  0.61179662  0.74120943     0.08010
C734        C  0.01994863  0.63496743  0.72975072    -0.02110
Br735      Br  0.04637274  0.66403612  0.75061949    -0.00660
Br736      Br  0.04350995  0.67152108  0.68850511    -0.00730
Br737      Br  0.45582378  0.55848727  0.74223845    -0.00690
Br738      Br  0.46033099  0.55836935  0.67905207    -0.00680
C739        C  0.10689361  0.60282428  0.58964788    -0.01800
C740        C  0.12463698  0.63168032  0.59504647     0.07880
C741        C  0.10786934  0.65966514  0.60347923    -0.01910
C742        C  0.07492242  0.65790483  0.60898053    -0.01920
C743        C  0.05850140  0.62833572  0.60649329     0.08010
C744        C  0.07401064  0.60122972  0.59570688    -0.02110
Br745      Br  0.05007339  0.56155111  0.59046606    -0.00660
Br746      Br  0.12693810  0.56442928  0.57551477    -0.00730
Br747      Br  0.05215492  0.69579512  0.62098861    -0.00690
Br748      Br  0.12925059  0.70091640  0.60754954    -0.00680
C749        C  0.39226805  0.61343009  0.58656265    -0.01800
C750        C  0.37246432  0.63676458  0.59850029     0.07880
C751        C  0.38580018  0.66066442  0.61519535    -0.01910
C752        C  0.41862137  0.66026256  0.62096965    -0.01920
C753        C  0.43792711  0.63502271  0.61100198     0.08010
C754        C  0.42488928  0.61216351  0.59308941    -0.02110
Br755      Br  0.45075905  0.57755138  0.57900940    -0.00660
Br756      Br  0.37431466  0.58280081  0.56177154    -0.00730
Br757      Br  0.43707191  0.69401472  0.64295165    -0.00690
Br758      Br  0.35858223  0.69266764  0.63146542    -0.00680
C759        C  0.27551457  0.64300483  0.47825351    -0.01800
C760        C  0.25239387  0.62525006  0.49211405     0.07880
C761        C  0.22958975  0.60579562  0.47794599    -0.01910
C762        C  0.22875148  0.60600208  0.45121859    -0.01920
C763        C  0.25217265  0.62297366  0.43788497     0.08010
C764        C  0.27597354  0.64070910  0.45146487    -0.02110
Br765      Br  0.31046329  0.66088131  0.43318115    -0.00660
Br766      Br  0.30725911  0.67139153  0.49456336    -0.00730
Br767      Br  0.19414687  0.58408514  0.43276193    -0.00690
Br768      Br  0.19919285  0.57736347  0.49370986    -0.00680
C769        C  0.22933508  0.65854487  0.70566119    -0.01800
C770        C  0.25256762  0.64183801  0.69048006     0.07880
C771        C  0.27773685  0.62634581  0.70286041    -0.01910
C772        C  0.27688144  0.62341352  0.72930507    -0.01920
C773        C  0.25399434  0.64040065  0.74443720     0.08010
C774        C  0.23148923  0.65951967  0.73239798    -0.02110
Br775      Br  0.20422819  0.68832945  0.75241975    -0.00660
Br776      Br  0.19296568  0.67879619  0.69081458    -0.00730
Br777      Br  0.30570089  0.59336885  0.74374627    -0.00690
Br778      Br  0.31518726  0.61059248  0.68447831    -0.00680
C779        C  0.27746175  0.87941136  0.45202616    -0.01800
C780        C  0.24825975  0.87812474  0.43838229     0.07880
C781        C  0.21886275  0.87853676  0.45192282    -0.01910
C782        C  0.21881751  0.87991894  0.47865107    -0.01920
C783        C  0.24791052  0.88011842  0.49198399     0.08010
C784        C  0.27717788  0.87995356  0.47872667    -0.02110
Br785      Br  0.31688864  0.88041606  0.49740330    -0.00660
Br786      Br  0.31814132  0.88219810  0.43457828    -0.00730
Br787      Br  0.17888123  0.88137619  0.49727629    -0.00690
Br788      Br  0.17834943  0.87533801  0.43432535    -0.00680
C789        C  0.27105788  0.80880463  0.58324143    -0.01800
C790        C  0.24397211  0.82079004  0.57115211     0.07880
C791        C  0.21672698  0.80088358  0.56709677    -0.01910
C792        C  0.21754885  0.76843682  0.57302547    -0.01920
C793        C  0.24514338  0.75603929  0.58404290     0.08010
C794        C  0.27150375  0.77652411  0.58986629    -0.02110
Br795      Br  0.30845272  0.76009340  0.60647900    -0.00660
Br796      Br  0.30837193  0.83586774  0.58913171    -0.00730
Br797      Br  0.18216984  0.74027761  0.56346031    -0.00690
Br798      Br  0.17849257  0.81800291  0.55271463    -0.00680
C799        C  0.22100186  0.95675891  0.58347675    -0.01800
C800        C  0.24937341  0.94204885  0.57463280     0.07880
C801        C  0.27826322  0.95982128  0.57471291    -0.01910
C802        C  0.27822489  0.99297343  0.58112470    -0.01920
C803        C  0.24922587  0.50839745  0.58775761     0.08010
C804        C  0.22101824  0.98984949  0.59030307    -0.02110
Br805      Br  0.18257836  0.50967880  0.60349686    -0.00660
Br806      Br  0.18176209  0.93196591  0.58455735    -0.00730
Br807      Br  0.31753599  0.51738322  0.57858039    -0.00690
Br808      Br  0.31758642  0.93877081  0.56463866    -0.00680
C809        C  0.74575936  0.35198541  0.55900008     0.03180
C810        C  0.74669608  0.35177858  0.53237488    -0.12970
C811        C  0.74770031  0.38054491  0.51995700     0.00680
C812        C  0.74832077  0.40972848  0.53413495    -0.11500
C813        C  0.74790425  0.41040451  0.56073480     0.03170
C814        C  0.74640078  0.38146740  0.57326398    -0.10920
H815        H  0.74634574  0.32915815  0.52128913     0.08760
H816        H  0.74924237  0.43202801  0.52443684     0.06290
H817        H  0.74581394  0.38188933  0.59383429     0.06140
Zn818      Zn  0.72137724  0.10546477  0.56977771     1.49720
Zn819      Zn  0.77770981  0.15797515  0.57033045     1.49360
Zn820      Zn  0.72321755  0.16216374  0.61312807     1.49110
Zn821      Zn  0.77428683  0.10646035  0.61311476     1.49480
O822        O  0.74915230  0.13302727  0.59150892    -1.84080
O823        O  0.73060892  0.11190423  0.53281226    -0.74710
O824        O  0.76771021  0.20510022  0.57436831    -0.74530
O825        O  0.67626138  0.15005884  0.60943564    -0.74050
O826        O  0.77189853  0.14494736  0.53321423    -0.74730
O827        O  0.67466762  0.11514004  0.57633888    -0.74320
O828        O  0.72836638  0.20806615  0.60295868    -0.74910
O829        O  0.76376090  0.11605343  0.64991445    -0.74300
O830        O  0.82409539  0.15259647  0.57962955    -0.75060
O831        O  0.73568920  0.16054087  0.65019119    -0.74450
O832        O  0.82148527  0.11587140  0.60876514    -0.74910
O833        O  0.76686560  0.05925280  0.60524067    -0.74820
O834        O  0.72892957  0.05839369  0.57575867    -0.74610
C835        C  0.75168750  0.12738113  0.52082602     0.77180
C836        C  0.74731656  0.22125410  0.58751677     0.77670
C837        C  0.66038134  0.13239412  0.59338258     0.76630
C838        C  0.75049320  0.13947984  0.66206785     0.77010
C839        C  0.83749824  0.13480836  0.59523242     0.78140
C840        C  0.74802928  0.04389069  0.58995785     0.77190
C841        C  0.96970741  0.12980256  0.62242645     0.03180
C842        C  0.49824382  0.13089550  0.60820150    -0.12970
C843        C  0.52759141  0.12462078  0.61976848     0.00680
C844        C  0.52829969  0.11714671  0.64536050    -0.11500
C845        C  0.50029066  0.11780919  0.66002375     0.03170
C846        C  0.97107483  0.12373065  0.64833659    -0.10920
H847        H  0.49766139  0.13683574  0.58843568     0.08760
H848        H  0.55103939  0.11245865  0.65422163     0.06290
H849        H  0.94925189  0.12410375  0.65955896     0.06140
C850        C  0.49994383  0.39721604  0.87129806     0.03180
C851        C  0.49954753  0.39785025  0.89788922    -0.12970
C852        C  0.50133508  0.36935968  0.91056172     0.00680
C853        C  0.50353955  0.34006343  0.89663266    -0.11500
C854        C  0.50395243  0.33909311  0.87002059     0.03170
C855        C  0.50215358  0.36775766  0.85725206    -0.10920
H856        H  0.49796245  0.42057545  0.90873162     0.08760
H857        H  0.50478997  0.31794914  0.90651129     0.06290
H858        H  0.50238871  0.36713686  0.83667291     0.06140
Zn859      Zn  0.97485577  0.14409020  0.81799629     1.49720
Zn860      Zn  0.52343105  0.08557242  0.81755237     1.49360
Zn861      Zn  0.52938114  0.14265988  0.86018433     1.49110
Zn862      Zn  0.97064724  0.09343758  0.86131128     1.49480
O863        O  0.49953531  0.11646510  0.83918585    -1.84080
O864        O  0.98332412  0.13355073  0.78099410    -0.74710
O865        O  0.57084034  0.09227760  0.82256151    -0.74530
O866        O  0.52247925  0.18999585  0.85530293    -0.74050
O867        O  0.51491199  0.09091106  0.78045086    -0.74730
O868        O  0.98622849  0.19069459  0.82477193    -0.74320
O869        O  0.57532519  0.13187134  0.85148438    -0.74910
O870        O  0.97818681  0.10702317  0.89797992    -0.74300
O871        O  0.51321325  0.04000142  0.82592897    -0.75060
O872        O  0.52272473  0.13546176  0.89742387    -0.74450
O873        O  0.97852499  0.04567339  0.85782835    -0.74910
O874        O  0.92427769  0.10151008  0.85332210    -0.74820
O875        O  0.92748040  0.13857021  0.82448786    -0.74610
C876        C  0.49929631  0.11178771  0.76903790     0.77180
C877        C  0.58836065  0.11108814  0.83639821     0.77670
C878        C  0.50491853  0.20539854  0.84052652     0.76630
C879        C  0.50058394  0.12211540  0.90986627     0.77010
C880        C  0.49578196  0.02801356  0.84297364     0.78140
C881        C  0.91110091  0.12056900  0.83854990     0.77190
C882        C  0.77953937  0.13042362  0.81274945     0.03180
C883        C  0.78003010  0.13965266  0.78754316    -0.12970
C884        C  0.75243080  0.13674404  0.77248701     0.00680
C885        C  0.72348120  0.12801381  0.78401428    -0.11500
C886        C  0.72203689  0.12178047  0.80991977     0.03170
C887        C  0.75044985  0.12182607  0.82407183    -0.10920
H888        H  0.80255335  0.14688565  0.77915273     0.08760
H889        H  0.70187619  0.12563055  0.77272664     0.06290
H890        H  0.75000118  0.11476591  0.84357506     0.06140
C891        C  0.72148184  0.37701302  0.12033869     0.03180
C892        C  0.72091944  0.37178860  0.14641109    -0.12970
C893        C  0.74945072  0.36960436  0.15990180     0.00680
C894        C  0.77873357  0.37169656  0.14713444    -0.11500
C895        C  0.77974194  0.37726386  0.12109893     0.03170
C896        C  0.75096727  0.37996736  0.10766245    -0.10920
H897        H  0.69821282  0.37058223  0.15639455     0.08760
H898        H  0.80085196  0.37027198  0.15769892     0.06290
H899        H  0.75150551  0.38501919  0.08770032     0.06140
Zn900      Zn  0.97275304  0.40713402  0.06868724     1.49720
Zn901      Zn  0.52583830  0.41178084  0.11271918     1.49360
Zn902      Zn  0.97297214  0.35589412  0.11150541     1.49110
Zn903      Zn  0.52828121  0.35508575  0.06938248     1.49480
O904        O  0.99998480  0.38254138  0.09054890    -1.84080
O905        O  0.98275967  0.45421483  0.07366240    -0.74710
O906        O  0.51696954  0.40548102  0.14993538    -0.74530
O907        O  0.92643985  0.36375429  0.10554063    -0.74050
O908        O  0.51843569  0.45839397  0.10489368    -0.74730
O909        O  0.92570768  0.40080021  0.07667000    -0.74320
O910        O  0.98086360  0.36599015  0.14854207    -0.74910
O911        O  0.51997837  0.30835601  0.07570413    -0.74300
O912        O  0.57265165  0.40249705  0.10751080    -0.75060
O913        O  0.98101697  0.30883307  0.10451466    -0.74450
O914        O  0.57509925  0.36568975  0.07607762    -0.74910
O915        O  0.52002274  0.35998201  0.03225028    -0.74820
O916        O  0.98045288  0.39501159  0.03165488    -0.74610
C917        C  0.00089296  0.47114271  0.08852235     0.77180
C918        C  0.99885741  0.38581285  0.16108798     0.77670
C919        C  0.91134049  0.38254772  0.09176152     0.76630
C920        C  0.00033931  0.29364564  0.08971243     0.77010
C921        C  0.58910036  0.38456007  0.09233690     0.78140
C922        C  0.00027894  0.37636819  0.02014218     0.77190
C923        C  0.00309136  0.10191264  0.06066820     0.03180
C924        C  0.00432507  0.10086209  0.03407035    -0.12970
C925        C  0.00135161  0.12894803  0.02088379     0.00680
C926        C  0.99822260  0.15835389  0.03465226    -0.11500
C927        C  0.99888975  0.15988422  0.06126451     0.03170
C928        C  0.00082674  0.13155037  0.07437369    -0.10920
H929        H  0.00674116  0.07796375  0.02359605     0.08760
H930        H  0.99585782  0.18025443  0.02463237     0.06290
H931        H  0.00055877  0.13255410  0.09495898     0.06140
C932        C  0.52861194  0.37210982  0.30941154     0.03180
C933        C  0.52824684  0.37856878  0.28350734    -0.12970
C934        C  0.49927579  0.38110485  0.27061165     0.00680
C935        C  0.97042815  0.37865018  0.28390951    -0.11500
C936        C  0.97025546  0.37234471  0.30980890     0.03170
C937        C  0.49943389  0.36882502  0.32254960    -0.10920
H938        H  0.55060058  0.38012738  0.27307734     0.08760
H939        H  0.94797375  0.38037786  0.27384019     0.06290
H940        H  0.49940884  0.36287399  0.34232179     0.06140
Zn941      Zn  0.72160538  0.39653216  0.36031211     1.49720
Zn942      Zn  0.77715978  0.34456356  0.36211710     1.49360
Zn943      Zn  0.72556249  0.33867217  0.31791102     1.49110
Zn944      Zn  0.77745460  0.39516555  0.31856398     1.49480
O945        O  0.75045368  0.36882171  0.33979255    -1.84080
O946        O  0.72908860  0.39193542  0.39779515    -0.74710
O947        O  0.76780203  0.29737612  0.35742531    -0.74530
O948        O  0.67896197  0.34555581  0.32433813    -0.74050
O949        O  0.76841904  0.35678360  0.39883034    -0.74730
O950        O  0.67478795  0.38616417  0.35232027    -0.74320
O951        O  0.73488332  0.29229510  0.32451992    -0.74910
O952        O  0.76902681  0.38516865  0.28153031    -0.74300
O953        O  0.82425508  0.35109360  0.35457056    -0.75060
O954        O  0.73255442  0.34603842  0.28076501    -0.74450
O955        O  0.82394051  0.38679492  0.32460101    -0.74910
O956        O  0.76959513  0.44236661  0.32534539    -0.74820
O957        O  0.73061274  0.44304403  0.35406274    -0.74610
C958        C  0.74859333  0.37555007  0.41018122     0.77180
C959        C  0.75141284  0.27993898  0.34165848     0.77670
C960        C  0.66159110  0.36470527  0.33765080     0.76630
C961        C  0.75044049  0.36558493  0.26931578     0.77010
C962        C  0.83881932  0.36855560  0.33900600     0.78140
C963        C  0.75028772  0.45770343  0.34006674     0.77190
C964        C  0.74969633  0.14936895  0.37000751     0.03180
C965        C  0.75121280  0.11981105  0.35612941    -0.12970
C966        C  0.75312167  0.09134453  0.36903264     0.00680
C967        C  0.75449704  0.09262498  0.39562226    -0.11500
C968        C  0.75190787  0.12194402  0.40963769     0.03170
C969        C  0.74905141  0.15022979  0.39663888    -0.10920
H970        H  0.75101417  0.11897683  0.33554598     0.08760
H971        H  0.75678754  0.07057032  0.40545030     0.06290
H972        H  0.74713904  0.17308333  0.40724974     0.06140
C973        C  0.77978376  0.19649106  0.35492454    -0.01800
C974        C  0.75043196  0.18002902  0.35729485     0.07880
C975        C  0.72168412  0.19487630  0.35107451    -0.01910
C976        C  0.72197190  0.22717868  0.34449579    -0.01920
C977        C  0.75123802  0.24466523  0.34405976     0.08010
C978        C  0.78025620  0.22873147  0.34842016    -0.02110
Br979      Br  0.82092421  0.25084031  0.34590662    -0.00660
Br980      Br  0.81931041  0.17494338  0.36158241    -0.00730
Br981      Br  0.68175667  0.24784589  0.33880363    -0.00690
Br982      Br  0.68182933  0.17118703  0.35296775    -0.00680
C983        C  0.78139092  0.04334577  0.35051737    -0.01800
C984        C  0.75256430  0.05958611  0.35540445     0.07880
C985        C  0.72307217  0.04360060  0.35117577    -0.01910
C986        C  0.72234824  0.01061957  0.34415351    -0.01920
C987        C  0.75124351  0.49333257  0.34186741     0.08010
C988        C  0.78088842  0.01022335  0.34383151    -0.02110
Br989      Br  0.82116722  0.48821550  0.33981934    -0.00660
Br990      Br  0.82154470  0.06648566  0.35448841    -0.00730
Br991      Br  0.68157533  0.48941086  0.33762466    -0.00690
Br992      Br  0.68364079  0.06671452  0.35651994    -0.00680
C993        C  0.61123115  0.33892793  0.31775480    -0.01800
C994        C  0.62566758  0.36266371  0.33476251     0.07880
C995        C  0.60518508  0.38545053  0.34755002    -0.01910
C996        C  0.57283944  0.38783807  0.34015429    -0.01920
C997        C  0.55993588  0.36620861  0.32145496     0.08010
C998        C  0.57845499  0.34038335  0.31197019    -0.02110
Br999      Br  0.55832358  0.30657459  0.29093790    -0.00660
Br1000     Br  0.63472274  0.30393470  0.30104626    -0.00730
Br1001     Br  0.54652429  0.42183179  0.35474277    -0.00690
Br1002     Br  0.61984940  0.41358644  0.37558143    -0.00680
C1003       C  0.88652489  0.34132765  0.32045495    -0.01800
C1004       C  0.87375444  0.36632914  0.33615546     0.07880
C1005       C  0.89398530  0.39085993  0.34647300    -0.01910
C1006       C  0.92656193  0.39178478  0.33940283    -0.01920
C1007       C  0.93894558  0.36769425  0.32246218     0.08010
C1008       C  0.91923228  0.34153123  0.31421936    -0.02110
Br1009     Br  0.93687174  0.30639929  0.29365670    -0.00660
Br1010     Br  0.85855897  0.30858074  0.30530760    -0.00730
Br1011     Br  0.95345156  0.42723732  0.35136413    -0.00690
Br1012     Br  0.87653653  0.42381570  0.36931395    -0.00680
C1013       C  0.97371177  0.05603556  0.07870384    -0.01800
C1014       C  0.00305518  0.07128022  0.07341467     0.07880
C1015       C  0.53192291  0.05479911  0.07591180    -0.01910
C1016       C  0.53139185  0.02226180  0.08171832    -0.01920
C1017       C  0.00192132  0.50635185  0.08593989     0.08010
C1018       C  0.97312150  0.02371409  0.08510929    -0.02110
Br1019     Br  0.93260031  0.50320981  0.09200514    -0.00660
Br1020     Br  0.93418489  0.07899505  0.07550272    -0.00730
Br1021     Br  0.57080595  0.49883740  0.08034504    -0.00690
Br1022     Br  0.57206280  0.07664860  0.06992087    -0.00680
C1023       C  0.96975192  0.24157720  0.08368579    -0.01800
C1024       C  0.99924884  0.25809733  0.08780155     0.07880
C1025       C  0.52799212  0.24058371  0.08766323    -0.01910
C1026       C  0.52759051  0.20752000  0.08089169    -0.01920
C1027       C  0.99845557  0.19176906  0.07468381     0.08010
C1028       C  0.96946651  0.20842668  0.07720618    -0.02110
Br1029     Br  0.92955419  0.18583928  0.07029223    -0.00660
Br1030     Br  0.92974431  0.26431632  0.08442070    -0.00730
Br1031     Br  0.56714223  0.18407990  0.07842874    -0.00690
Br1032     Br  0.56799438  0.26173207  0.09680089    -0.00680
C1033       C  0.00023549  0.35523245  0.20071725    -0.01800
C1034       C  0.99919465  0.38508681  0.18919451     0.07880
C1035       C  0.49824462  0.41380390  0.20470079    -0.01910
C1036       C  0.49855189  0.41255790  0.23137841    -0.01920
C1037       C  0.99909546  0.38274967  0.24266597     0.08010
C1038       C  0.99947439  0.35414032  0.22729431    -0.02110
Br1039     Br  0.99841978  0.31318460  0.24266413    -0.00660
Br1040     Br  0.00472984  0.31549367  0.18045504    -0.00730
Br1041     Br  0.49784882  0.45156527  0.25267537    -0.00690
Br1042     Br  0.49486393  0.45487203  0.18972272    -0.00680
C1043       C  0.74941420  0.33847831  0.19920219    -0.01800
C1044       C  0.74876775  0.36820610  0.18782102     0.07880
C1045       C  0.74777941  0.39690363  0.20304782    -0.01910
C1046       C  0.74765256  0.39598182  0.22964812    -0.01920
C1047       C  0.74925876  0.36621707  0.24125087     0.08010
C1048       C  0.74987721  0.33739384  0.22586332    -0.02110
Br1049     Br  0.75299837  0.29635600  0.24094724    -0.00660
Br1050     Br  0.74980736  0.29933618  0.17804122    -0.00730
Br1051     Br  0.74344862  0.43574294  0.24989491    -0.00690
Br1052     Br  0.74670692  0.43765895  0.18736951    -0.00680
C1053       C  0.83096993  0.40807997  0.11762877    -0.01800
C1054       C  0.81136051  0.38202289  0.10894380     0.07880
C1055       C  0.82379547  0.35852185  0.09149576    -0.01910
C1056       C  0.85627471  0.36000782  0.08420967    -0.01920
C1057       C  0.87640806  0.38440764  0.09486434     0.08010
C1058       C  0.86360749  0.40875144  0.11119364    -0.02110
Br1059     Br  0.89145677  0.44128817  0.12676435    -0.00660
Br1060     Br  0.81327808  0.44259038  0.13887404    -0.00730
Br1061     Br  0.87367832  0.32810941  0.06042097    -0.00690
Br1062     Br  0.79717739  0.32305897  0.07907761    -0.00680
C1063       C  0.64098590  0.41170607  0.10721126    -0.01800
C1064       C  0.62499280  0.38509179  0.09455693     0.07880
C1065       C  0.64371781  0.35830532  0.08583608    -0.01910
C1066       C  0.67627851  0.35664217  0.09270613    -0.01920
C1067       C  0.69066178  0.38178070  0.10747574     0.08010
C1068       C  0.67364213  0.40998914  0.11326750    -0.02110
Br1069     Br  0.69549054  0.44620502  0.13016179    -0.00660
Br1070     Br  0.61943836  0.45118519  0.11699821    -0.00730
Br1071     Br  0.70108358  0.31909987  0.08320978    -0.00690
Br1072     Br  0.62585204  0.32252985  0.06554243    -0.00680
C1073       C  0.82638850  0.15161275  0.83815174    -0.01800
C1074       C  0.81046447  0.12567494  0.82535411     0.07880
C1075       C  0.82642484  0.09642132  0.82058264    -0.01910
C1076       C  0.85934163  0.09444328  0.82553801    -0.01920
C1077       C  0.87589954  0.12110646  0.83678631     0.08010
C1078       C  0.85899366  0.14906437  0.84436105    -0.02110
Br1079     Br  0.88052290  0.18363854  0.86325381    -0.00660
Br1080     Br  0.80368040  0.19076453  0.84627931    -0.00730
Br1081     Br  0.88227590  0.05640911  0.81443144    -0.00690
Br1082     Br  0.80331683  0.05945190  0.80629252    -0.00680
C1083       C  0.64447182  0.13305310  0.84687033    -0.01800
C1084       C  0.62433711  0.10964868  0.83395298     0.07880
C1085       C  0.63922115  0.08601614  0.81739116    -0.01910
C1086       C  0.67210983  0.08845295  0.81165452    -0.01920
C1087       C  0.69039994  0.11471890  0.82141804     0.08010
C1088       C  0.67696930  0.13617413  0.83986737    -0.02110
Br1089     Br  0.70255991  0.17147627  0.85433393    -0.00660
Br1090     Br  0.62922485  0.16121376  0.87460429    -0.00730
Br1091     Br  0.69267421  0.05572805  0.79010636    -0.00690
Br1092     Br  0.61614900  0.04956400  0.80186245    -0.00680
C1093       C  0.52452327  0.14417770  0.97912491    -0.01800
C1094       C  0.00112740  0.12745651  0.99267845     0.07880
C1095       C  0.97755834  0.10911106  0.97936099    -0.01910
C1096       C  0.97826266  0.10594619  0.95263455    -0.01920
C1097       C  0.50084763  0.12400304  0.93852539     0.08010
C1098       C  0.52366626  0.14376715  0.95237080    -0.02110
Br1099     Br  0.55402407  0.17166723  0.93604097    -0.00660
Br1100     Br  0.55894621  0.16668729  0.99734817    -0.00730
Br1101     Br  0.94837493  0.07514193  0.93679258    -0.00690
Br1102     Br  0.94302480  0.08930513  0.99788387    -0.00680
C1103       C  0.97172459  0.36852042  0.97845828    -0.01800
C1104       C  0.00058804  0.37387313  0.99204484     0.07880
C1105       C  0.52977169  0.37706473  0.97862551    -0.01910
C1106       C  0.52997077  0.37510604  0.95191800    -0.01920
C1107       C  0.50111343  0.37032446  0.93852663     0.08010
C1108       C  0.97203333  0.36695472  0.95174020    -0.02110
Br1109     Br  0.93265391  0.36033944  0.93301997    -0.00660
Br1110     Br  0.93184525  0.36176025  0.99621615    -0.00730
Br1111     Br  0.56973066  0.37913282  0.93343023    -0.00690
Br1112     Br  0.56944374  0.38588452  0.99653390    -0.00680
C1113       C  0.97657182  0.29167701  0.84886587    -0.01800
C1114       C  0.50523849  0.30743648  0.85623856     0.07880
C1115       C  0.53441026  0.29099580  0.85433145    -0.01910
C1116       C  0.53463511  0.25798436  0.84729341    -0.01920
C1117       C  0.50546169  0.24113198  0.84254280     0.08010
C1118       C  0.97657041  0.25864475  0.84186741    -0.02110
Br1119     Br  0.93620675  0.23787058  0.83328736    -0.00660
Br1120     Br  0.93691621  0.31512155  0.85031403    -0.00730
Br1121     Br  0.57513893  0.23629655  0.84370992    -0.00690
Br1122     Br  0.57387670  0.31375786  0.86242712    -0.00680
C1123       C  0.52713896  0.44469896  0.85382038    -0.01800
C1124       C  0.49854550  0.42804071  0.85889161     0.07880
C1125       C  0.96888402  0.44309421  0.85627143    -0.01910
C1126       C  0.96781751  0.47540982  0.84991803    -0.01960
C1127       C  0.49655074  0.99293707  0.84635043     0.08010
C1128       C  0.52626732  0.47714268  0.84779182    -0.02110
Br1129     Br  0.56621399  0.00038177  0.84446369    -0.00660
Br1130     Br  0.56763023  0.42336949  0.85684639    -0.00730
Br1131     Br  0.92681301  0.99536684  0.84631117    -0.00690
Br1132     Br  0.92979057  0.41951824  0.86246883    -0.00680
C1133       C  0.51995134  0.13688995  0.70323669    -0.01800
C1134       C  0.50166394  0.11466616  0.68791888     0.07880
C1135       C  0.98350102  0.09055806  0.69951477    -0.01910
C1136       C  0.98267022  0.08953293  0.72615724    -0.01920
C1137       C  0.50080440  0.11179676  0.74120955     0.08010
C1138       C  0.51994821  0.13496759  0.72975085    -0.02110
Br1139     Br  0.54637237  0.16403624  0.75061961    -0.00660
Br1140     Br  0.54350943  0.17152135  0.68850526    -0.00730
Br1141     Br  0.95582335  0.05848752  0.74223854    -0.00690
Br1142     Br  0.96033043  0.05836978  0.67905217    -0.00680
C1143       C  0.60689304  0.10282444  0.58964806    -0.01800
C1144       C  0.62463645  0.13168047  0.59504661     0.07880
C1145       C  0.60786884  0.15966532  0.60347934    -0.01910
C1146       C  0.57492192  0.15790507  0.60898064    -0.01920
C1147       C  0.55850086  0.12833599  0.60649342     0.08010
C1148       C  0.57401006  0.10122994  0.59570704    -0.02110
Br1149     Br  0.55007275  0.06155136  0.59046626    -0.00660
Br1150     Br  0.62693749  0.06442937  0.57551504    -0.00730
Br1151     Br  0.55215448  0.19579541  0.62098870    -0.00690
Br1152     Br  0.62925015  0.20091656  0.60754960    -0.00680
C1153       C  0.89226758  0.11343040  0.58656274    -0.01800
C1154       C  0.87246376  0.13676474  0.59850044     0.07880
C1155       C  0.88579952  0.16066456  0.61519558    -0.01910
C1156       C  0.91862071  0.16026282  0.62096986    -0.01920
C1157       C  0.93792656  0.13502309  0.61100212     0.08010
C1158       C  0.92488882  0.11216391  0.59308949    -0.02110
Br1159     Br  0.95075872  0.07755194  0.57900938    -0.00660
Br1160     Br  0.87431431  0.08280115  0.56177153    -0.00730
Br1161     Br  0.93707112  0.19401500  0.64295192    -0.00690
Br1162     Br  0.85858142  0.19266757  0.63146576    -0.00680
C1163       C  0.77551389  0.14300512  0.47825357    -0.01800
C1164       C  0.75239335  0.12525011  0.49211409     0.07880
C1165       C  0.72958945  0.10579544  0.47794600    -0.01910
C1166       C  0.72875119  0.10600191  0.45121860    -0.01920
C1167       C  0.75217226  0.12297366  0.43788500     0.08010
C1168       C  0.77597298  0.14070931  0.45146493    -0.02110
Br1169     Br  0.81046270  0.16088166  0.43318128    -0.00660
Br1170     Br  0.80725792  0.17139239  0.49456344    -0.00730
Br1171     Br  0.69414672  0.08408476  0.43276192    -0.00690
Br1172     Br  0.69919290  0.07736290  0.49370984    -0.00680
C1173       C  0.72933472  0.15854476  0.70566126    -0.01800
C1174       C  0.75256717  0.14183783  0.69048009     0.07880
C1175       C  0.77773635  0.12634550  0.70286041    -0.01910
C1176       C  0.77688099  0.12341321  0.72930508    -0.01920
C1177       C  0.75399398  0.14040043  0.74443724     0.08010
C1178       C  0.73148892  0.15951953  0.73239805    -0.02110
Br1179     Br  0.70422800  0.18832938  0.75241988    -0.00660
Br1180     Br  0.69296538  0.17879626  0.69081471    -0.00730
Br1181     Br  0.80570035  0.09336843  0.74374624    -0.00690
Br1182     Br  0.81518666  0.11059200  0.68447826    -0.00680
C1183       C  0.77746176  0.37941134  0.45202621    -0.01800
C1184       C  0.74825975  0.37812476  0.43838234     0.07880
C1185       C  0.71886276  0.37853682  0.45192287    -0.01910
C1186       C  0.71881752  0.37991901  0.47865113    -0.01920
C1187       C  0.74791053  0.38011844  0.49198404     0.08010
C1188       C  0.77717789  0.37995354  0.47872672    -0.02110
Br1189     Br  0.81688865  0.38041598  0.49740335    -0.00660
Br1190     Br  0.81814134  0.38219803  0.43457833    -0.00730
Br1191     Br  0.67888124  0.38137632  0.49727635    -0.00690
Br1192     Br  0.67834944  0.37533811  0.43432540    -0.00680
C1193       C  0.77105761  0.30880456  0.58324149    -0.01800
C1194       C  0.74397189  0.32079003  0.57115214     0.07880
C1195       C  0.71672671  0.30088364  0.56709679    -0.01910
C1196       C  0.71754850  0.26843687  0.57302549    -0.01920
C1197       C  0.74514298  0.25603928  0.58404293     0.08010
C1198       C  0.77150339  0.27652403  0.58986635    -0.02110
Br1199     Br  0.80845229  0.26009323  0.60647908    -0.00660
Br1200     Br  0.80837173  0.33586757  0.58913180    -0.00730
Br1201     Br  0.68216942  0.24027775  0.56346034    -0.00690
Br1202     Br  0.67849236  0.31800306  0.55271463    -0.00680
C1203       C  0.72100215  0.45675895  0.58347686    -0.01800
C1204       C  0.74937364  0.44204882  0.57463289     0.07880
C1205       C  0.77826350  0.45982116  0.57471300    -0.01910
C1206       C  0.77822528  0.49297330  0.58112482    -0.01920
C1207       C  0.74922544  0.00839748  0.58775742     0.08010
C1208       C  0.72101863  0.48984953  0.59030320    -0.02110
Br1209     Br  0.68257793  0.00967864  0.60349666    -0.00660
Br1210     Br  0.68176230  0.43196608  0.58455746    -0.00730
Br1211     Br  0.81753553  0.01738345  0.57858016    -0.00690
Br1212     Br  0.81758664  0.43877057  0.56463874    -0.00680
C1213       C  0.74575947  0.85198541  0.55900003     0.03180
C1214       C  0.74669619  0.85177856  0.53237483    -0.12970
C1215       C  0.74770030  0.88054488  0.51995694     0.00680
C1216       C  0.74832065  0.90972846  0.53413487    -0.11500
C1217       C  0.74790413  0.91040451  0.56073472     0.03170
C1218       C  0.74640079  0.88146741  0.57326392    -0.10920
H1219       H  0.74634593  0.82915813  0.52128909     0.08760
H1220       H  0.74924215  0.93202798  0.52443675     0.06290
H1221       H  0.74581395  0.88188935  0.59383423     0.06140
Zn1222     Zn  0.72137784  0.60546468  0.56977768     1.49720
Zn1223     Zn  0.77771034  0.65797518  0.57033041     1.49360
Zn1224     Zn  0.72321802  0.66216370  0.61312798     1.49110
Zn1225     Zn  0.77428738  0.60646036  0.61311475     1.49480
O1226       O  0.74915285  0.63302725  0.59150887    -1.84080
O1227       O  0.73060961  0.61190402  0.53281223    -0.74710
O1228       O  0.76771075  0.70510026  0.57436832    -0.74530
O1229       O  0.67626187  0.65005873  0.60943554    -0.74050
O1230       O  0.77189895  0.64494750  0.53321417    -0.74730
O1231       O  0.67466820  0.61513995  0.57633876    -0.74320
O1232       O  0.72836679  0.70806611  0.60295859    -0.74910
O1233       O  0.76376148  0.61605355  0.64991443    -0.74300
O1234       O  0.82409593  0.65259642  0.57962946    -0.75060
O1235       O  0.73568963  0.66054089  0.65019111    -0.74450
O1236       O  0.82148581  0.61587136  0.60876506    -0.74910
O1237       O  0.76686612  0.55925278  0.60524075    -0.74820
O1238       O  0.72893012  0.55839364  0.57575873    -0.74610
C1239       C  0.75168805  0.62738109  0.52082598     0.77180
C1240       C  0.74731702  0.72125410  0.58751673     0.77670
C1241       C  0.66038187  0.63239400  0.59338245     0.76630
C1242       C  0.75049369  0.63947994  0.66206780     0.77010
C1243       C  0.83749879  0.63480829  0.59523232     0.78140
C1244       C  0.74802979  0.54389066  0.58995794     0.77190
C1245       C  0.96970795  0.62980218  0.62242631     0.03180
C1246       C  0.49824436  0.63089510  0.60820135    -0.12970
C1247       C  0.52759195  0.62462039  0.61976834     0.00680
C1248       C  0.52830023  0.61714634  0.64536036    -0.11500
C1249       C  0.50029119  0.61780882  0.66002361     0.03170
C1250       C  0.97107537  0.62373029  0.64833645    -0.10920
H1251       H  0.49766193  0.63683534  0.58843553     0.08760
H1252       H  0.55103992  0.61245829  0.65422150     0.06290
H1253       H  0.94925243  0.62410342  0.65955881     0.06140
C1254       C  0.49994377  0.89721600  0.87129802     0.03180
C1255       C  0.49954747  0.89785019  0.89788918    -0.12970
C1256       C  0.50133505  0.86935962  0.91056166     0.00680
C1257       C  0.50353955  0.84006338  0.89663260    -0.11500
C1258       C  0.50395243  0.83909308  0.87002052     0.03170
C1259       C  0.50215355  0.86775763  0.85725200    -0.10920
H1260       H  0.49796237  0.92057539  0.90873158     0.08760
H1261       H  0.50479000  0.81794909  0.90651122     0.06290
H1262       H  0.50238869  0.86713684  0.83667286     0.06140
Zn1263     Zn  0.97485604  0.64409016  0.81799612     1.49720
Zn1264     Zn  0.52343129  0.58557236  0.81755231     1.49360
Zn1265     Zn  0.52938139  0.64265990  0.86018419     1.49110
Zn1266     Zn  0.97064746  0.59343763  0.86131117     1.49480
O1267       O  0.49953555  0.61646509  0.83918573    -1.84080
O1268       O  0.98332444  0.63355063  0.78099393    -0.74710
O1269       O  0.57084058  0.59227749  0.82256149    -0.74530
O1270       O  0.52247942  0.68999586  0.85530281    -0.74050
O1271       O  0.51491230  0.59091096  0.78045078    -0.74730
O1272       O  0.98622873  0.69069456  0.82477175    -0.74320
O1273       O  0.57532543  0.63187141  0.85148419    -0.74910
O1274       O  0.97818703  0.60702327  0.89797979    -0.74300
O1275       O  0.51321343  0.54000139  0.82592892    -0.75060
O1276       O  0.52272503  0.63546173  0.89742375    -0.74450
O1277       O  0.97852517  0.54567344  0.85782830    -0.74910
O1278       O  0.92427793  0.60151014  0.85332199    -0.74820
O1279       O  0.92748066  0.63857018  0.82448768    -0.74610
C1280       C  0.49929666  0.61178758  0.76903777     0.77180
C1281       C  0.58836090  0.61108812  0.83639810     0.77670
C1282       C  0.50491872  0.70539853  0.84052637     0.76630
C1283       C  0.50058420  0.62211543  0.90986615     0.77010
C1284       C  0.49578213  0.52801356  0.84297359     0.78140
C1285       C  0.91110116  0.62056903  0.83854975     0.77190
C1286       C  0.77953961  0.63042376  0.81274942     0.03180
C1287       C  0.78003036  0.63965288  0.78754315    -0.12970
C1288       C  0.75243110  0.63674423  0.77248696     0.00680
C1289       C  0.72348148  0.62801395  0.78401420    -0.11500
C1290       C  0.72203714  0.62178057  0.80991968     0.03170
C1291       C  0.75045008  0.62182615  0.82407176    -0.10920
H1292       H  0.80255362  0.64688593  0.77915276     0.08760
H1293       H  0.70187649  0.62563068  0.77272654     0.06290
H1294       H  0.75000140  0.61476594  0.84357497     0.06140
C1295       C  0.72148186  0.87701300  0.12033863     0.03180
C1296       C  0.72091945  0.87178858  0.14641103    -0.12970
C1297       C  0.74945073  0.86960433  0.15990175     0.00680
C1298       C  0.77873358  0.87169653  0.14713440    -0.11500
C1299       C  0.77974196  0.87726383  0.12109889     0.03170
C1300       C  0.75096730  0.87996733  0.10766240    -0.10920
H1301       H  0.69821283  0.87058221  0.15639448     0.08760
H1302       H  0.80085196  0.87027194  0.15769888     0.06290
H1303       H  0.75150554  0.88501917  0.08770027     0.06140
Zn1304     Zn  0.97275306  0.90713400  0.06868720     1.49720
Zn1305     Zn  0.52583833  0.91178080  0.11271914     1.49360
Zn1306     Zn  0.97297217  0.85589407  0.11150536     1.49110
Zn1307     Zn  0.52828124  0.85508574  0.06938242     1.49480
O1308       O  0.99998483  0.88254135  0.09054885    -1.84080
O1309       O  0.98275968  0.95421481  0.07366239    -0.74710
O1310       O  0.51696958  0.90548095  0.14993534    -0.74530
O1311       O  0.92643988  0.86375425  0.10554059    -0.74050
O1312       O  0.51843571  0.95839393  0.10489367    -0.74730
O1313       O  0.92570770  0.90080018  0.07666997    -0.74320
O1314       O  0.98086364  0.86599009  0.14854202    -0.74910
O1315       O  0.51997841  0.80835599  0.07570406    -0.74300
O1316       O  0.57265168  0.90249701  0.10751075    -0.75060
O1317       O  0.98101700  0.80883303  0.10451459    -0.74450
O1318       O  0.57509928  0.86568974  0.07607756    -0.74910
O1319       O  0.52002276  0.85998199  0.03225023    -0.74820
O1320       O  0.98045291  0.89501159  0.03165483    -0.74610
C1321       C  0.00089297  0.97114269  0.08852235     0.77180
C1322       C  0.99885744  0.88581279  0.16108793     0.77670
C1323       C  0.91134052  0.88254769  0.09176148     0.76630
C1324       C  0.00033935  0.79364561  0.08971236     0.77010
C1325       C  0.58910039  0.88456004  0.09233684     0.78140
C1326       C  0.00027895  0.87636818  0.02014213     0.77190
C1327       C  0.00309146  0.60191263  0.06066808     0.03180
C1328       C  0.00432522  0.60086208  0.03407023    -0.12970
C1329       C  0.00135177  0.62894802  0.02088366     0.00680
C1330       C  0.99822273  0.65835388  0.03465214    -0.11500
C1331       C  0.99888983  0.65988421  0.06126438     0.03170
C1332       C  0.00082680  0.63155035  0.07437357    -0.10920
H1333       H  0.00674134  0.57796375  0.02359593     0.08760
H1334       H  0.99585796  0.68025443  0.02463225     0.06290
H1335       H  0.00055879  0.63255408  0.09495886     0.06140
C1336       C  0.52861193  0.87210978  0.30941150     0.03180
C1337       C  0.52824684  0.87856872  0.28350730    -0.12970
C1338       C  0.49927580  0.88110481  0.27061161     0.00680
C1339       C  0.97042816  0.87865016  0.28390945    -0.11500
C1340       C  0.97025545  0.87234470  0.30980884     0.03170
C1341       C  0.49943388  0.86882501  0.32254956    -0.10920
H1342       H  0.55060060  0.88012731  0.27307731     0.08760
H1343       H  0.94797376  0.88037784  0.27384013     0.06290
H1344       H  0.49940881  0.86287399  0.34232175     0.06140
Zn1345     Zn  0.72160535  0.89653214  0.36031207     1.49720
Zn1346     Zn  0.77715978  0.84456357  0.36211704     1.49360
Zn1347     Zn  0.72556246  0.83867216  0.31791097     1.49110
Zn1348     Zn  0.77745457  0.89516556  0.31856393     1.49480
O1349       O  0.75045366  0.86882171  0.33979250    -1.84080
O1350       O  0.72908859  0.89193540  0.39779510    -0.74710
O1351       O  0.76780205  0.79737613  0.35742525    -0.74530
O1352       O  0.67896194  0.84555580  0.32433807    -0.74050
O1353       O  0.76841904  0.85678359  0.39883028    -0.74730
O1354       O  0.67478794  0.88616413  0.35232024    -0.74320
O1355       O  0.73488331  0.79229510  0.32451988    -0.74910
O1356       O  0.76902677  0.88516867  0.28153026    -0.74300
O1357       O  0.82425507  0.85109363  0.35457050    -0.75060
O1358       O  0.73255441  0.84603841  0.28076496    -0.74450
O1359       O  0.82394049  0.88679494  0.32460094    -0.74910
O1360       O  0.76959509  0.94236663  0.32534536    -0.74820
O1361       O  0.73061269  0.94304401  0.35406271    -0.74610
C1362       C  0.74859333  0.87555005  0.41018117     0.77180
C1363       C  0.75141285  0.77993898  0.34165843     0.77670
C1364       C  0.66159107  0.86470525  0.33765077     0.76630
C1365       C  0.75044047  0.86558494  0.26931573     0.77010
C1366       C  0.83881930  0.86855563  0.33900593     0.78140
C1367       C  0.75028768  0.95770344  0.34006671     0.77190
C1368       C  0.74969651  0.64936897  0.37000749     0.03180
C1369       C  0.75121291  0.61981107  0.35612938    -0.12970
C1370       C  0.75312181  0.59134454  0.36903260     0.00680
C1371       C  0.75449726  0.59262499  0.39562222    -0.11500
C1372       C  0.75190817  0.62194403  0.40963765     0.03170
C1373       C  0.74905170  0.65022981  0.39663885    -0.10920
H1374       H  0.75101420  0.61897685  0.33554595     0.08760
H1375       H  0.75678777  0.57057033  0.40545026     0.06290
H1376       H  0.74713940  0.67308336  0.40724972     0.06140
C1377       C  0.77978386  0.69649109  0.35492446    -0.01800
C1378       C  0.75043208  0.68002903  0.35729482     0.07880
C1379       C  0.72168422  0.69487630  0.35107451    -0.01910
C1380       C  0.72197196  0.72717867  0.34449579    -0.01920
C1381       C  0.75123806  0.74466524  0.34405971     0.08010
C1382       C  0.78025627  0.72873149  0.34842007    -0.02110
Br1383     Br  0.82092426  0.75084037  0.34590647    -0.00660
Br1384     Br  0.81931055  0.67494344  0.36158228    -0.00730
Br1385     Br  0.68175670  0.74784586  0.33880369    -0.00690
Br1386     Br  0.68182945  0.67118700  0.35296783    -0.00680
C1387       C  0.78139101  0.54334577  0.35051731    -0.01800
C1388       C  0.75256440  0.55958612  0.35540442     0.07880
C1389       C  0.72307226  0.54360061  0.35117579    -0.01910
C1390       C  0.72234830  0.51061958  0.34415355    -0.01920
C1391       C  0.75124346  0.99333257  0.34186740     0.08010
C1392       C  0.78088848  0.51022335  0.34383147    -0.02110
Br1393     Br  0.82116717  0.98821551  0.33981943    -0.00660
Br1394     Br  0.82154479  0.56648566  0.35448827    -0.00730
Br1395     Br  0.68157529  0.98941084  0.33762456    -0.00690
Br1396     Br  0.68364090  0.56671455  0.35652000    -0.00680
C1397       C  0.61123111  0.83892786  0.31775483    -0.01800
C1398       C  0.62566755  0.86266368  0.33476249     0.07880
C1399       C  0.60518507  0.88545055  0.34754997    -0.01910
C1400       C  0.57283943  0.88783808  0.34015424    -0.01920
C1401       C  0.55993586  0.86620858  0.32145494     0.08010
C1402       C  0.57845495  0.84038329  0.31197022    -0.02110
Br1403     Br  0.55832353  0.80657450  0.29093796    -0.00660
Br1404     Br  0.63472268  0.80393454  0.30104640    -0.00730
Br1405     Br  0.54652429  0.92183184  0.35474268    -0.00690
Br1406     Br  0.61984941  0.91358653  0.37558133    -0.00680
C1407       C  0.88652486  0.84132768  0.32045485    -0.01800
C1408       C  0.87375442  0.86632916  0.33615539     0.07880
C1409       C  0.89398529  0.89085992  0.34647294    -0.01910
C1410       C  0.92656193  0.89178476  0.33940278    -0.01920
C1411       C  0.93894556  0.86769425  0.32246211     0.08010
C1412       C  0.91923225  0.84153125  0.31421927    -0.02110
Br1413     Br  0.93687169  0.80639931  0.29365660    -0.00660
Br1414     Br  0.85855892  0.80858082  0.30530747    -0.00730
Br1415     Br  0.95345157  0.92723729  0.35136410    -0.00690
Br1416     Br  0.87653654  0.92381568  0.36931391    -0.00680
C1417       C  0.97371182  0.55603557  0.07870373    -0.01800
C1418       C  0.00305524  0.57128022  0.07341455     0.07880
C1419       C  0.53192296  0.55479910  0.07591172    -0.01910
C1420       C  0.53139188  0.52226179  0.08171827    -0.01920
C1421       C  0.00192131  0.00635183  0.08593993     0.08010
C1422       C  0.97312152  0.52371412  0.08510921    -0.02110
Br1423     Br  0.93260030  0.00320974  0.09200521    -0.00660
Br1424     Br  0.93418495  0.57899507  0.07550255    -0.00730
Br1425     Br  0.57080594  0.99883742  0.08034503    -0.00690
Br1426     Br  0.57206287  0.57664856  0.06992079    -0.00680
C1427       C  0.96975197  0.74157717  0.08368568    -0.01800
C1428       C  0.99924888  0.75809730  0.08780146     0.07880
C1429       C  0.52799217  0.74058369  0.08766314    -0.01910
C1430       C  0.52759057  0.70751998  0.08089159    -0.01920
C1431       C  0.99845564  0.69176905  0.07468369     0.08010
C1432       C  0.96946657  0.70842666  0.07720605    -0.02110
Br1433     Br  0.92955426  0.68583925  0.07029207    -0.00660
Br1434     Br  0.92974435  0.76431629  0.08442058    -0.00730
Br1435     Br  0.56714230  0.68407990  0.07842865    -0.00690
Br1436     Br  0.56799442  0.76173205  0.09680084    -0.00680
C1437       C  0.00023553  0.85523239  0.20071720    -0.01800
C1438       C  0.99919468  0.88508675  0.18919446     0.07880
C1439       C  0.49824464  0.91380384  0.20470074    -0.01910
C1440       C  0.49855191  0.91255785  0.23137836    -0.01920
C1441       C  0.99909549  0.88274962  0.24266592     0.08010
C1442       C  0.99947443  0.85414027  0.22729426    -0.02110
Br1443     Br  0.99841984  0.81318454  0.24266409    -0.00660
Br1444     Br  0.00472988  0.81549361  0.18045500    -0.00730
Br1445     Br  0.49784883  0.95156522  0.25267532    -0.00690
Br1446     Br  0.49486395  0.95487197  0.18972267    -0.00680
C1447       C  0.74941421  0.83847830  0.19920214    -0.01800
C1448       C  0.74876775  0.86820609  0.18782096     0.07880
C1449       C  0.74777939  0.89690361  0.20304776    -0.01910
C1450       C  0.74765253  0.89598182  0.22964807    -0.01920
C1451       C  0.74925875  0.86621707  0.24125082     0.08010
C1452       C  0.74987721  0.83739384  0.22586328    -0.02110
Br1453     Br  0.75299839  0.79635600  0.24094720    -0.00660
Br1454     Br  0.74980738  0.79933616  0.17804118    -0.00730
Br1455     Br  0.74344858  0.93574293  0.24989485    -0.00690
Br1456     Br  0.74670689  0.93765893  0.18736945    -0.00680
C1457       C  0.83096996  0.90807992  0.11762875    -0.01800
C1458       C  0.81136054  0.88202286  0.10894376     0.07880
C1459       C  0.82379549  0.85852183  0.09149570    -0.01910
C1460       C  0.85627473  0.86000781  0.08420962    -0.01920
C1461       C  0.87640809  0.88440760  0.09486431     0.08010
C1462       C  0.86360753  0.90875138  0.11119363    -0.02110
Br1463     Br  0.89145682  0.94128808  0.12676438    -0.00660
Br1464     Br  0.81327813  0.94259032  0.13887404    -0.00730
Br1465     Br  0.87367833  0.82810941  0.06042089    -0.00690
Br1466     Br  0.79717741  0.82305897  0.07907753    -0.00680
C1467       C  0.64098594  0.91170605  0.10721118    -0.01800
C1468       C  0.62499283  0.88509176  0.09455686     0.07880
C1469       C  0.64371783  0.85830529  0.08583602    -0.01910
C1470       C  0.67627853  0.85664213  0.09270607    -0.01920
C1471       C  0.69066181  0.88178067  0.10747568     0.08010
C1472       C  0.67364217  0.90998912  0.11326742    -0.02110
Br1473     Br  0.69549058  0.94620501  0.13016169    -0.00660
Br1474     Br  0.61943839  0.95118517  0.11699812    -0.00730
Br1475     Br  0.70108360  0.81909982  0.08320974    -0.00690
Br1476     Br  0.62585205  0.82252981  0.06554240    -0.00680
C1477       C  0.82638876  0.65161282  0.83815171    -0.01800
C1478       C  0.81046470  0.62567505  0.82535407     0.07880
C1479       C  0.82642505  0.59642142  0.82058256    -0.01910
C1480       C  0.85934185  0.59444336  0.82553788    -0.01920
C1481       C  0.87589979  0.62110652  0.83678619     0.08010
C1482       C  0.85899394  0.64906442  0.84436098    -0.02110
Br1483     Br  0.88052322  0.68363855  0.86325376    -0.00660
Br1484     Br  0.80368069  0.69076460  0.84627935    -0.00730
Br1485     Br  0.88227609  0.55640919  0.81443127    -0.00690
Br1486     Br  0.80331701  0.55945203  0.80629243    -0.00680
C1487       C  0.64447206  0.63305300  0.84687029    -0.01800
C1488       C  0.62433735  0.60964866  0.83395286     0.07880
C1489       C  0.63922139  0.58601619  0.81739097    -0.01910
C1490       C  0.67211007  0.58845303  0.81165434    -0.01920
C1491       C  0.69040017  0.61471895  0.82141793     0.08010
C1492       C  0.67696954  0.63617409  0.83986732    -0.02110
Br1493     Br  0.70256013  0.67147619  0.85433397    -0.00660
Br1494     Br  0.62922512  0.66121345  0.87460439    -0.00730
Br1495     Br  0.69267445  0.55572821  0.79010609    -0.00690
Br1496     Br  0.61614923  0.54956412  0.80186215    -0.00680
C1497       C  0.52452346  0.64417774  0.97912480    -0.01800
C1498       C  0.00112761  0.62745651  0.99267832     0.07880
C1499       C  0.97755859  0.60911102  0.97936084    -0.01910
C1500       C  0.97826295  0.60594614  0.95263441    -0.01920
C1501       C  0.50084788  0.62400305  0.93852527     0.08010
C1502       C  0.52366646  0.64376721  0.95237069    -0.02110
Br1503     Br  0.55402419  0.67166737  0.93604087    -0.00660
Br1504     Br  0.55894635  0.66668738  0.99734808    -0.00730
Br1505     Br  0.94837535  0.57514177  0.93679241    -0.00690
Br1506     Br  0.94302504  0.58930505  0.99788369    -0.00680
C1507       C  0.97172459  0.86852040  0.97845824    -0.01800
C1508       C  0.00058804  0.87387311  0.99204479     0.07880
C1509       C  0.52977169  0.87706469  0.97862545    -0.01910
C1510       C  0.52997077  0.87510598  0.95191795    -0.01920
C1511       C  0.50111341  0.87032439  0.93852657     0.08010
C1512       C  0.97203332  0.86695468  0.95174015    -0.02110
Br1513     Br  0.93265390  0.86033941  0.93301994    -0.00660
Br1514     Br  0.93184524  0.86176027  0.99621612    -0.00730
Br1515     Br  0.56973065  0.87913273  0.93343017    -0.00690
Br1516     Br  0.56944374  0.88588447  0.99653383    -0.00680
C1517       C  0.97657191  0.79167696  0.84886575    -0.01800
C1518       C  0.50523855  0.80743646  0.85623849     0.07880
C1519       C  0.53441034  0.79099581  0.85433138    -0.01910
C1520       C  0.53463523  0.75798437  0.84729332    -0.01920
C1521       C  0.50546184  0.74113197  0.84254266     0.08010
C1522       C  0.97657054  0.75864471  0.84186726    -0.02110
Br1523     Br  0.93620693  0.73787050  0.83328713    -0.00660
Br1524     Br  0.93691627  0.81512145  0.85031390    -0.00730
Br1525     Br  0.57513908  0.73629662  0.84370984    -0.00690
Br1526     Br  0.57387674  0.81375791  0.86242709    -0.00680
C1527       C  0.52713886  0.94469897  0.85382038    -0.01800
C1528       C  0.49854541  0.92804068  0.85889158     0.07880
C1529       C  0.96888393  0.94309416  0.85627141    -0.01910
C1530       C  0.96781739  0.97540978  0.84991803    -0.01960
C1531       C  0.49655088  0.49293708  0.84635041     0.08010
C1532       C  0.52626719  0.97714269  0.84779184    -0.02110
Br1533     Br  0.56621414  0.50038170  0.84446359    -0.00660
Br1534     Br  0.56763015  0.92336952  0.85684638    -0.00730
Br1535     Br  0.92681315  0.49536692  0.84631116    -0.00690
Br1536     Br  0.92979050  0.91951814  0.86246878    -0.00680
C1537       C  0.51995184  0.63688966  0.70323655    -0.01800
C1538       C  0.50166446  0.61466584  0.68791874     0.07880
C1539       C  0.98350152  0.59055775  0.69951465    -0.01910
C1540       C  0.98267066  0.58953269  0.72615713    -0.01920
C1541       C  0.50080480  0.61179657  0.74120943     0.08010
C1542       C  0.51994864  0.63496736  0.72975072    -0.02110
Br1543     Br  0.54637277  0.66403605  0.75061947    -0.00660
Br1544     Br  0.54350998  0.67152099  0.68850510    -0.00730
Br1545     Br  0.95582379  0.55848731  0.74223844    -0.00690
Br1546     Br  0.96033099  0.55836942  0.67905206    -0.00680
C1547       C  0.60689362  0.60282424  0.58964787    -0.01800
C1548       C  0.62463698  0.63168029  0.59504647     0.07880
C1549       C  0.60786933  0.65966510  0.60347924    -0.01910
C1550       C  0.57492241  0.65790478  0.60898053    -0.01920
C1551       C  0.55850140  0.62833567  0.60649329     0.08010
C1552       C  0.57401064  0.60122967  0.59570687    -0.02110
Br1553     Br  0.55007340  0.56155106  0.59046604    -0.00660
Br1554     Br  0.62693811  0.56442925  0.57551474    -0.00730
Br1555     Br  0.55215490  0.69579506  0.62098862    -0.00690
Br1556     Br  0.62925057  0.70091637  0.60754956    -0.00680
C1557       C  0.89226806  0.61343012  0.58656266    -0.01800
C1558       C  0.87246432  0.63676460  0.59850029     0.07880
C1559       C  0.88580017  0.66066444  0.61519536    -0.01910
C1560       C  0.91862136  0.66026260  0.62096965    -0.01920
C1561       C  0.93792711  0.63502277  0.61100198     0.08010
C1562       C  0.92488929  0.61216355  0.59308940    -0.02110
Br1563     Br  0.95075908  0.57755144  0.57900939    -0.00660
Br1564     Br  0.87431468  0.58280083  0.56177154    -0.00730
Br1565     Br  0.93707189  0.69401478  0.64295164    -0.00690
Br1566     Br  0.85858220  0.69266765  0.63146543    -0.00680
C1567       C  0.77551450  0.64300491  0.47825350    -0.01800
C1568       C  0.75239386  0.62525006  0.49211404     0.07880
C1569       C  0.72958980  0.60579555  0.47794598    -0.01910
C1570       C  0.72875151  0.60600201  0.45121859    -0.01920
C1571       C  0.75217263  0.62297366  0.43788496     0.08010
C1572       C  0.77597347  0.64070917  0.45146486    -0.02110
Br1573     Br  0.81046319  0.66088144  0.43318115    -0.00660
Br1574     Br  0.80725889  0.67139178  0.49456335    -0.00730
Br1575     Br  0.69414693  0.58408501  0.43276193    -0.00690
Br1576     Br  0.69919304  0.57736325  0.49370985    -0.00680
C1577       C  0.72933508  0.65854485  0.70566118    -0.01800
C1578       C  0.75256762  0.64183798  0.69048005     0.07880
C1579       C  0.77773683  0.62634577  0.70286040    -0.01910
C1580       C  0.77688143  0.62341348  0.72930507    -0.01920
C1581       C  0.75399433  0.64040063  0.74443719     0.08010
C1582       C  0.73148923  0.65951965  0.73239797    -0.02110
Br1583     Br  0.70422820  0.68832944  0.75241974    -0.00660
Br1584     Br  0.69296569  0.67879619  0.69081457    -0.00730
Br1585     Br  0.80570086  0.59336879  0.74374627    -0.00690
Br1586     Br  0.81518724  0.61059241  0.68447830    -0.00680
C1587       C  0.77746175  0.87941134  0.45202615    -0.01800
C1588       C  0.74825974  0.87812473  0.43838229     0.07880
C1589       C  0.71886275  0.87853675  0.45192281    -0.01910
C1590       C  0.71881751  0.87991893  0.47865107    -0.01920
C1591       C  0.74791052  0.88011840  0.49198398     0.08010
C1592       C  0.77717788  0.87995354  0.47872666    -0.02110
Br1593     Br  0.81688864  0.88041604  0.49740330    -0.00660
Br1594     Br  0.81814132  0.88219808  0.43457828    -0.00730
Br1595     Br  0.67888123  0.88137617  0.49727628    -0.00690
Br1596     Br  0.67834943  0.87533800  0.43432534    -0.00680
C1597       C  0.77105788  0.80880461  0.58324141    -0.01800
C1598       C  0.74397210  0.82079003  0.57115210     0.07880
C1599       C  0.71672697  0.80088357  0.56709678    -0.01910
C1600       C  0.71754884  0.76843681  0.57302547    -0.01920
C1601       C  0.74514337  0.75603927  0.58404288     0.08010
C1602       C  0.77150375  0.77652409  0.58986627    -0.02110
Br1603     Br  0.80845272  0.76009337  0.60647897    -0.00660
Br1604     Br  0.80837194  0.83586772  0.58913169    -0.00730
Br1605     Br  0.68216982  0.74027761  0.56346033    -0.00690
Br1606     Br  0.67849256  0.81800291  0.55271465    -0.00680
C1607       C  0.72100188  0.95675890  0.58347674    -0.01800
C1608       C  0.74937342  0.94204884  0.57463279     0.07880
C1609       C  0.77826323  0.95982128  0.57471289    -0.01910
C1610       C  0.77822490  0.99297342  0.58112468    -0.01920
C1611       C  0.74922587  0.50839744  0.58775758     0.08010
C1612       C  0.72101825  0.98984948  0.59030305    -0.02110
Br1613     Br  0.68257837  0.50967880  0.60349684    -0.00660
Br1614     Br  0.68176210  0.93196590  0.58455735    -0.00730
Br1615     Br  0.81753599  0.51738321  0.57858034    -0.00690
Br1616     Br  0.81758643  0.93877080  0.56463864    -0.00680
loop_ 
_geom_bond_atom_site_label_1 
_geom_bond_atom_site_label_2 
_geom_bond_distance 
_geom_bond_site_symmetry_2 
_ccdc_geom_bond_type 
C1            C2   1.404       .  A
C1            C6   1.408       .  A
C1          C386   1.481       .  S
C2            C3   1.397       .  A
C2            H7   1.084       .  S
C3            C4   1.395       .  A
C3          C379   1.474       .  S
C4            C5   1.402       .  A
C4            H8   1.085       .  S
C5            C6   1.407       .  A
C5          C396   1.477       .  S
C6            H9   1.084       .  S
Zn10         O14   1.955       .  S
Zn10         O15   2.017       .  S
Zn10         O19   2.021       .  S
Zn10         O26   2.034       .  S
Zn11         O14   1.957       .  S
Zn11         O16   2.015       .  S
Zn11         O18   2.019       .  S
Zn11         O22   2.018       .  S
Zn12         O14   1.956       .  S
Zn12         O17   2.026       .  S
Zn12         O20   2.024       .  S
Zn12         O23   2.030       .  S
Zn13         O14   1.949       .  S
Zn13         O21   2.009       .  S
Zn13         O24   2.019       .  S
Zn13         O25   2.012       .  S
O15          C27   1.271       .  A
O16          C28   1.273       .  A
O17          C29   1.275       .  A
O18          C27   1.271       .  A
O19          C29   1.273       .  A
O20          C28   1.274       .  A
O21          C30   1.272       .  A
O22          C31   1.272       .  A
O23          C30   1.273       .  A
O24          C31   1.274       .  A
O25          C32   1.272       .  A
O26          C32   1.276       .  A
C27         C356   1.512       .  S
C28         C389   1.476       .  S
C29         C336   1.495       .  S
C30         C366   1.499       .  S
C31         C346   1.472       .  S
C32         C399   1.481       .  S
C33          C38   1.404       .  A
C33         C842   1.407       .  A
C33         C349   1.483       .  S
C34          C35   1.405   1_655  A
C34         C841   1.407       .  A
C34          H39   1.084       .  S
C35          C36   1.402       .  A
C35         C339   1.476       .  S
C36          C37   1.399       .  A
C36          H40   1.084       .  S
C37         C846   1.400   1_455  A
C37         C326   1.485       .  S
C38         C845   1.400       .  A
C38          H41   1.084       .  S
C42          C43   1.401       .  A
C42          C47   1.405   1_655  A
C42         C316   1.475       .  S
C43          C44   1.397   1_655  A
C43          H48   1.084       .  S
C44          C45   1.396       .  A
C44         C299   1.473       .  S
C45          C46   1.402       .  A
C45          H49   1.085       .  S
C46          C47   1.406       .  A
C46         C306   1.475       .  S
C47          H50   1.084       .  S
Zn51        O863   1.953       .  S
Zn51         O56   2.009       .  S
Zn51         O60   2.010       .  S
Zn51         O67   2.018       .  S
Zn52         O55   1.956   1_455  S
Zn52         O57   2.012       .  S
Zn52         O59   2.014       .  S
Zn52         O63   2.014       .  S
Zn53         O55   1.956   1_455  S
Zn53         O58   2.029       .  S
Zn53         O61   2.021       .  S
Zn53         O64   2.020       .  S
Zn54        O863   1.953       .  S
Zn54         O62   2.012       .  S
Zn54         O65   2.022       .  S
Zn54         O66   2.019       .  S
O55        Zn859   1.953       .  S
O55        Zn862   1.953       .  S
O56         C876   1.272       .  A
O57          C69   1.270       .  A
O58          C70   1.275       .  A
O59          C68   1.272   1_455  A
O60         C878   1.271       .  A
O61          C69   1.272       .  A
O62         C879   1.270       .  A
O63          C72   1.273   1_455  A
O64          C71   1.271       .  A
O65         C880   1.274       .  A
O66          C73   1.273       .  A
O67          C73   1.274       .  A
C68         C329   1.469   1_655  S
C68         O864   1.272       .  A
C69         C276   1.509       .  S
C70         C309   1.489       .  S
C70         O868   1.271   1_455  A
C71         C289   1.509       .  S
C71         O870   1.270   1_455  A
C72         C319   1.484   1_545  S
C72         O873   1.274       .  A
C73         C269   1.474       .  S
C74          C75   1.403       .  A
C74          C79   1.402       .  A
C74         C266   1.475       .  S
C75          C76   1.403       .  A
C75          H80   1.084       .  S
C76          C77   1.403       .  A
C76         C369   1.496       .  S
C77          C78   1.405       .  A
C77          H81   1.084       .  S
C78          C79   1.404       .  A
C78         C279   1.484       .  S
C79          H82   1.085       .  S
C83          C84   1.403       .  A
C83          C88   1.405       .  A
C83         C259   1.478       .  S
C84          C85   1.397       .  A
C84          H89   1.084       .  S
C85          C86   1.397       .  A
C85         C236   1.477       .  S
C86          C87   1.405       .  A
C86          H90   1.084       .  S
C87          C88   1.406       .  A
C87         C246   1.481       .  S
C88          H91   1.084       .  S
Zn92         O96   1.959       .  S
Zn92         O97   2.007       .  S
Zn92        O101   2.024       .  S
Zn92        O108   2.017       .  S
Zn93        O904   1.962   1_455  S
Zn93         O98   2.026       .  S
Zn93        O100   2.036       .  S
Zn93        O104   2.012       .  S
Zn94         O96   1.953       .  S
Zn94         O99   2.003       .  S
Zn94        O102   2.004       .  S
Zn94        O105   2.011       .  S
Zn95        O904   1.960   1_455  S
Zn95        O103   2.020       .  S
Zn95        O106   2.027       .  S
Zn95        O107   2.011       .  S
O96        Zn901   1.962       .  S
O96        Zn903   1.960       .  S
O97         C109   1.273       .  A
O98         C918   1.274   1_455  A
O99         C111   1.271       .  A
O100        C917   1.276       .  A
O101        C111   1.273       .  A
O102        C110   1.272       .  A
O103        C920   1.274       .  A
O104        C113   1.272       .  A
O105        C112   1.272       .  A
O106        C113   1.272       .  A
O107        C922   1.272       .  A
O108        C114   1.273       .  A
C109        C209   1.482       .  S
C109        O908   1.276       .  A
C110        C226   1.484       .  S
C110        O906   1.274       .  A
C111        C249   1.470       .  S
C112        C216   1.481       .  S
C112        O911   1.274       .  A
C113        C256   1.503       .  S
C114        C296   1.480   1_554  S
C114        O915   1.272       .  A
C115        C116   1.402       .  A
C115        C120   1.403       .  A
C115        C206   1.475       .  S
C116        C117   1.400       .  A
C116        H121   1.084       .  S
C117        C118   1.400       .  A
C117        C286   1.486   1_554  S
C118        C119   1.402       .  A
C118        H122   1.085       .  S
C119        C120   1.404       .  A
C119        C219   1.474       .  S
C120        H123   1.084       .  S
C124        C125   1.406       .  A
C124        C129   1.408   1_455  A
C124        C189   1.485       .  S
C125        C126   1.398   1_455  A
C125        H130   1.084       .  S
C126        C935   1.396       .  A
C126       C1037   1.479       .  S
C127        C128   1.404       .  A
C127        C934   1.396       .  A
C127        H131   1.085       .  S
C128        C937   1.407       .  A
C128        C199   1.480       .  S
C129        C936   1.407       .  A
C129        H132   1.084       .  S
Zn133       O137   1.962       .  S
Zn133       O138   2.022       .  S
Zn133       O142   2.038       .  S
Zn133       O149   2.016       .  S
Zn134       O137   1.954       .  S
Zn134       O139   2.005       .  S
Zn134       O141   2.009       .  S
Zn134       O145   2.022       .  S
Zn135       O137   1.954       .  S
Zn135       O140   1.995       .  S
Zn135       O143   2.026       .  S
Zn135       O146   2.018       .  S
Zn136       O137   1.954       .  S
Zn136       O144   2.007       .  S
Zn136       O147   2.006       .  S
Zn136       O148   2.014       .  S
O138        C150   1.274       .  A
O139        C151   1.272       .  A
O140        C152   1.268       .  A
O141        C150   1.273       .  A
O142        C152   1.274       .  A
O143        C151   1.274       .  A
O144        C153   1.272       .  A
O145        C154   1.273       .  A
O146        C153   1.273       .  A
O147        C154   1.272       .  A
O148        C155   1.272       .  A
O149        C155   1.274       .  A
C150        C376   1.486       .  S
C151        C169   1.483       .  S
C152        C186   1.509       .  S
C153        C239   1.483       .  S
C154        C196   1.469       .  S
C155        C179   1.484       .  S
C156        C157   1.403       .  A
C156        C161   1.403       .  A
C156        C166   1.475       .  S
C157        C158   1.402       .  A
C157        H162   1.084       .  S
C158        C159   1.402       .  A
C158        C176   1.474       .  S
C159        C160   1.401       .  A
C159        H163   1.085       .  S
C160        C161   1.402       .  A
C160        C359   1.488       .  S
C161        H164   1.084       .  S
C165        C166   1.406       .  A
C165        C170   1.405       .  A
C165       Br172   1.931       .  S
C166        C167   1.405       .  A
C167        C168   1.409       .  A
C167       Br174   1.930       .  S
C168        C169   1.416       .  A
C168       Br173   1.929       .  S
C169        C170   1.415       .  A
C170       Br171   1.929       .  S
C175        C176   1.405       .  A
C175        C180   1.408       .  A
C175       Br182   1.931       .  S
C176        C177   1.406       .  A
C177        C178   1.406       .  A
C177       Br184   1.931       .  S
C178        C583   1.415   1_545  A
C178       Br587   1.933   1_545  S
C179        C582   1.415       .  A
C179        C584   1.418       .  A
C180        C583   1.418   1_545  A
C180       Br585   1.932   1_545  S
Br181       C584   1.932       .  S
Br183       C582   1.933       .  S
C185        C186   1.430       .  A
C185        C190   1.406       .  A
C185       Br192   1.940       .  S
C186        C187   1.428       .  A
C187        C188   1.413       .  A
C187       Br194   1.936       .  S
C188        C189   1.406       .  A
C188       Br193   1.931       .  S
C189        C190   1.404       .  A
C190       Br191   1.934       .  S
C195        C196   1.406       .  A
C195        C200   1.403       .  A
C195       Br202   1.929       .  S
C196        C197   1.407       .  A
C197        C198   1.409       .  A
C197       Br204   1.928       .  S
C198        C199   1.411       .  A
C198       Br203   1.927       .  S
C199        C200   1.410       .  A
C200       Br201   1.929       .  S
C205        C206   1.407       .  A
C205        C210   1.407       .  A
C205       Br212   1.931       .  S
C206       C1015   1.405       .  A
C207        C208   1.407       .  A
C207       C1014   1.405       .  A
C207       Br214   1.930       .  S
C208       C1421   1.413       .  A
C208       Br617   1.924   1_545  S
C209       C1420   1.413       .  A
C209        C614   1.414       .  A
C210        C613   1.414       .  A
C210       Br615   1.928       .  S
Br211       C614   1.928       .  S
Br213       C612   1.924       .  S
C215        C216   1.416       .  A
C215        C220   1.407       .  A
C215       Br222   1.931       .  S
C216       C1025   1.413       .  A
C217        C218   1.407       .  A
C217       C1024   1.413   1_455  A
C217       Br224   1.930       .  S
C218       C1027   1.407   1_455  A
C218       Br223   1.930       .  S
C219        C220   1.406       .  A
C219       C1026   1.407       .  A
C220       Br221   1.931       .  S
C225        C226   1.415       .  A
C225        C230   1.405       .  A
C225       Br232   1.936       .  S
C226       C1035   1.416       .  A
C227        C228   1.411       .  A
C227       C1034   1.416       .  A
C227       Br234   1.931       .  S
C228       C1037   1.407       .  A
C228       Br233   1.929       .  S
C229        C230   1.408       .  A
C229       C1036   1.407       .  A
C229        C934   1.479       .  S
C230       Br231   1.929       .  S
C235        C236   1.406       .  A
C235        C240   1.409       .  A
C235       Br242   1.929       .  S
C236        C237   1.407       .  A
C237        C238   1.405       .  A
C237       Br244   1.930       .  S
C238        C239   1.415       .  A
C238       Br243   1.935       .  S
C239        C240   1.416       .  A
C240       Br241   1.931       .  S
C245        C246   1.411       .  A
C245        C250   1.403       .  A
C245       Br252   1.930       .  S
C246        C247   1.411       .  A
C247        C248   1.409       .  A
C247       Br254   1.928       .  S
C248        C249   1.408       .  A
C248       Br253   1.927       .  S
C249        C250   1.406       .  A
C250       Br251   1.929       .  S
C255        C256   1.425       .  A
C255        C260   1.405       .  A
C255       Br262   1.932       .  S
C256        C257   1.427       .  A
C257        C258   1.412       .  A
C257       Br264   1.934       .  S
C258        C259   1.404       .  A
C258       Br263   1.932       .  S
C259        C260   1.402       .  A
C260       Br261   1.934       .  S
C265        C266   1.406       .  A
C265        C270   1.408       .  A
C265       Br272   1.927       .  S
C266        C267   1.408       .  A
C267        C268   1.404       .  A
C267       Br274   1.930       .  S
C268        C269   1.408       .  A
C268       Br273   1.927       .  S
C269        C270   1.410       .  A
C270       Br271   1.925       .  S
C275        C276   1.428       .  A
C275        C280   1.411       .  A
C275       Br282   1.938       .  S
C276        C277   1.429       .  A
C277        C278   1.408       .  A
C277       Br284   1.937       .  S
C278        C279   1.404       .  A
C278       Br283   1.937       .  S
C279        C280   1.407       .  A
C280       Br281   1.935       .  S
C285        C290   1.411       .  A
C285       C1094   1.407       .  A
C285       Br292   1.938       .  S
C286        C287   1.406       .  A
C286       C1093   1.407       .  A
C287        C288   1.409       .  A
C287       Br294   1.939       .  S
C288       C1097   1.430       .  A
C288       Br293   1.940       .  S
C289        C290   1.430       .  A
C289       C1096   1.430   1_455  A
C290       Br291   1.939       .  S
C295        C296   1.414       .  A
C295        C300   1.407       .  A
C295       Br302   1.932       .  S
C296       C1105   1.415       .  A
C297        C298   1.407       .  A
C297       C1104   1.415       .  A
C297       Br304   1.932       .  S
C298        C299   1.406       .  A
C298       Br303   1.932       .  S
C299       C1108   1.406   1_455  A
C300       C1107   1.406       .  A
C300       Br301   1.931       .  S
C305        C310   1.408       .  A
C305       C1114   1.405       .  A
C305       Br312   1.933       .  S
C306        C307   1.406       .  A
C306       C1113   1.405   1_455  A
C307        C308   1.408       .  A
C307       Br314   1.930       .  S
C308        C309   1.415       .  A
C308       Br313   1.932       .  S
C309       C1118   1.420   1_455  A
C310       C1117   1.420       .  A
C310       Br311   1.930       .  S
C315        C316   1.406   1_455  A
C315        C320   1.407       .  A
C315       Br322   1.931       .  S
C316       C1125   1.406       .  A
C317        C318   1.407       .  A
C317       C1124   1.406       .  A
C317       Br324   1.931       .  S
C318       C1531   1.414       .  A
C318       Br727   1.928       .  S
C319       C1530   1.414       .  A
C319        C724   1.416   1_655  A
C320        C723   1.416   1_455  A
C320       Br725   1.931       .  S
Br321       C724   1.931   1_545  S
Br323       C722   1.928       .  S
C325        C326   1.416       .  A
C325        C330   1.405       .  A
C325       Br332   1.932       .  S
C326       C1135   1.415   1_455  A
C327        C328   1.408       .  A
C327       C1134   1.415       .  A
C327       Br334   1.931       .  S
C328       C1137   1.406       .  A
C328       Br333   1.930       .  S
C329        C330   1.406       .  A
C329       C1136   1.406   1_455  A
C330       Br331   1.933       .  S
C335        C336   1.422       .  A
C335        C340   1.410       .  A
C335       Br342   1.930       .  S
C336        C337   1.419       .  A
C337        C338   1.406       .  A
C337       Br344   1.931       .  S
C338        C339   1.404       .  A
C338       Br343   1.932       .  S
C339        C340   1.403       .  A
C340       Br341   1.931       .  S
C345        C346   1.407       .  A
C345        C350   1.409       .  A
C345       Br352   1.927       .  S
C346        C347   1.406       .  A
C347        C348   1.406       .  A
C347       Br354   1.929       .  S
C348        C349   1.412       .  A
C348       Br353   1.931       .  S
C349        C350   1.413       .  A
C350       Br351   1.930       .  S
C355        C356   1.431       .  A
C355        C360   1.411       .  A
C355       Br362   1.940       .  S
C356        C357   1.431       .  A
C357        C358   1.411       .  A
C357       Br364   1.940       .  S
C358        C359   1.407       .  A
C358       Br363   1.938       .  S
C359        C360   1.407       .  A
C360       Br361   1.937       .  S
C365        C366   1.421       .  A
C365        C370   1.412       .  A
C365       Br372   1.935       .  S
C366        C367   1.420       .  A
C367        C368   1.407       .  A
C367       Br374   1.940       .  S
C368        C369   1.415       .  A
C368       Br373   1.935       .  S
C369        C370   1.414       .  A
C370       Br371   1.936       .  S
C375        C376   1.417       .  A
C375        C380   1.407       .  A
C375       Br382   1.933       .  S
C376        C377   1.417       .  A
C377        C378   1.408       .  A
C377       Br384   1.933       .  S
C378        C379   1.406       .  A
C378       Br383   1.932       .  S
C379        C380   1.405       .  A
C380       Br381   1.932       .  S
C385        C386   1.410       .  A
C385        C390   1.409       .  A
C385       Br392   1.929       .  S
C386        C387   1.410       .  A
C387        C388   1.406       .  A
C387       Br394   1.931       .  S
C388        C389   1.409       .  A
C388       Br393   1.928       .  S
C389        C390   1.410       .  A
C390       Br391   1.928       .  S
C395        C396   1.407       .  A
C395        C400   1.408       .  A
C395       Br402   1.929       .  S
C396        C397   1.408       .  A
C397        C398   1.407       .  A
C397       Br404   1.931       .  S
C398        C803   1.412       .  A
C398       Br807   1.929       .  S
C399        C802   1.412   1_545  A
C399        C804   1.411   1_545  A
C400        C803   1.411       .  A
C400       Br805   1.926       .  S
Br401       C804   1.926   1_545  S
Br403       C802   1.929   1_545  S
C405        C406   1.404       .  A
C405        C410   1.408       .  A
C405        C790   1.481       .  S
C406        C407   1.397       .  A
C406        H411   1.084       .  S
C407        C408   1.395       .  A
C407        C783   1.474       .  S
C408        C409   1.402       .  A
C408        H412   1.085       .  S
C409        C410   1.407       .  A
C409        C800   1.477       .  S
C410        H413   1.084       .  S
Zn414       O418   1.955       .  S
Zn414       O419   2.017       .  S
Zn414       O423   2.021       .  S
Zn414       O430   2.034       .  S
Zn415       O418   1.957       .  S
Zn415       O420   2.015       .  S
Zn415       O422   2.019       .  S
Zn415       O426   2.018       .  S
Zn416       O418   1.956       .  S
Zn416       O421   2.026       .  S
Zn416       O424   2.024       .  S
Zn416       O427   2.030       .  S
Zn417       O418   1.949       .  S
Zn417       O425   2.009       .  S
Zn417       O428   2.019       .  S
Zn417       O429   2.012       .  S
O419        C431   1.271       .  A
O420        C432   1.273       .  A
O421        C433   1.275       .  A
O422        C431   1.271       .  A
O423        C433   1.273       .  A
O424        C432   1.274       .  A
O425        C434   1.272       .  A
O426        C435   1.272       .  A
O427        C434   1.273       .  A
O428        C435   1.274       .  A
O429        C436   1.272       .  A
O430        C436   1.276       .  A
C431        C760   1.512       .  S
C432        C793   1.476       .  S
C433        C740   1.495       .  S
C434        C770   1.499       .  S
C435        C750   1.472       .  S
C436        C803   1.481       .  S
C437       C1246   1.407       .  A
C437        C442   1.404       .  A
C437        C753   1.483       .  S
C438       C1245   1.407       .  A
C438        C439   1.405   1_655  A
C438        H443   1.084       .  S
C439        C440   1.402       .  A
C439        C743   1.476       .  S
C440        C441   1.399       .  A
C440        H444   1.084       .  S
C441       C1250   1.400   1_455  A
C441        C730   1.485       .  S
C442       C1249   1.400       .  A
C442        H445   1.084       .  S
C446        C447   1.401       .  A
C446        C451   1.405   1_655  A
C446        C720   1.475       .  S
C447        C448   1.397   1_655  A
C447        H452   1.084       .  S
C448        C449   1.396       .  A
C448        C703   1.473       .  S
C449        C450   1.402       .  A
C449        H453   1.085       .  S
C450        C451   1.406       .  A
C450        C710   1.475       .  S
C451        H454   1.084       .  S
Zn455      O1267   1.953       .  S
Zn455       O460   2.009       .  S
Zn455       O464   2.010       .  S
Zn455       O471   2.018       .  S
Zn456       O459   1.956   1_455  S
Zn456       O461   2.012       .  S
Zn456       O463   2.014       .  S
Zn456       O467   2.014       .  S
Zn457       O459   1.956   1_455  S
Zn457       O462   2.029       .  S
Zn457       O465   2.021       .  S
Zn457       O468   2.020       .  S
Zn458      O1267   1.953       .  S
Zn458       O466   2.012       .  S
Zn458       O469   2.022       .  S
Zn458       O470   2.019       .  S
O459      Zn1263   1.953       .  S
O459      Zn1266   1.953       .  S
O460       C1280   1.272       .  A
O461        C473   1.270       .  A
O462        C474   1.275       .  A
O463        C472   1.272   1_455  A
O464       C1282   1.271       .  A
O465        C473   1.272       .  A
O466       C1283   1.270       .  A
O467        C476   1.273   1_455  A
O468        C475   1.271       .  A
O469       C1284   1.274       .  A
O470        C477   1.273       .  A
O471        C477   1.274       .  A
C472        C733   1.469   1_655  S
C472       O1268   1.272       .  A
C473        C680   1.509       .  S
C474        C713   1.489       .  S
C474       O1272   1.271   1_455  A
C475        C693   1.509       .  S
C475       O1274   1.270   1_455  A
C476        C723   1.484       .  S
C476       O1277   1.274       .  A
C477        C673   1.474       .  S
C478        C479   1.403       .  A
C478        C483   1.402       .  A
C478        C670   1.475       .  S
C479        C480   1.403       .  A
C479        H484   1.084       .  S
C480        C481   1.403       .  A
C480        C773   1.496       .  S
C481        C482   1.405       .  A
C481        H485   1.084       .  S
C482        C483   1.404       .  A
C482        C683   1.484       .  S
C483        H486   1.085       .  S
C487        C488   1.403       .  A
C487        C492   1.405       .  A
C487        C663   1.478       .  S
C488        C489   1.397       .  A
C488        H493   1.084       .  S
C489        C490   1.397       .  A
C489        C640   1.477       .  S
C490        C491   1.405       .  A
C490        H494   1.084       .  S
C491        C492   1.406       .  A
C491        C650   1.481       .  S
C492        H495   1.084       .  S
Zn496       O500   1.959       .  S
Zn496       O501   2.007       .  S
Zn496       O505   2.024       .  S
Zn496       O512   2.017       .  S
Zn497      O1308   1.962   1_455  S
Zn497       O502   2.026       .  S
Zn497       O504   2.036       .  S
Zn497       O508   2.012       .  S
Zn498       O500   1.953       .  S
Zn498       O503   2.003       .  S
Zn498       O506   2.004       .  S
Zn498       O509   2.011       .  S
Zn499      O1308   1.960   1_455  S
Zn499       O507   2.020       .  S
Zn499       O510   2.027       .  S
Zn499       O511   2.011       .  S
O500      Zn1305   1.962       .  S
O500      Zn1307   1.960       .  S
O501        C513   1.273       .  A
O502       C1322   1.274   1_455  A
O503        C515   1.271       .  A
O504       C1321   1.276       .  A
O505        C515   1.273       .  A
O506        C514   1.272       .  A
O507       C1324   1.274       .  A
O508        C517   1.272       .  A
O509        C516   1.272       .  A
O510        C517   1.272       .  A
O511       C1326   1.272       .  A
O512        C518   1.273       .  A
C513        C613   1.482   1_565  S
C513       O1312   1.276       .  A
C514        C630   1.484       .  S
C514       O1310   1.274       .  A
C515        C653   1.470       .  S
C516        C620   1.481       .  S
C516       O1315   1.274       .  A
C517        C660   1.503       .  S
C518        C700   1.480   1_554  S
C518       O1319   1.272       .  A
C519        C520   1.402       .  A
C519        C524   1.403       .  A
C519        C610   1.475       .  S
C520        C521   1.400       .  A
C520        H525   1.084       .  S
C521        C522   1.400       .  A
C521        C690   1.486   1_554  S
C522        C523   1.402       .  A
C522        H526   1.085       .  S
C523        C524   1.404       .  A
C523        C623   1.474       .  S
C524        H527   1.084       .  S
C528        C529   1.406       .  A
C528        C533   1.408   1_455  A
C528        C593   1.485       .  S
C529        C530   1.398   1_455  A
C529        H534   1.084       .  S
C530       C1339   1.396       .  A
C530       C1441   1.479       .  S
C531       C1338   1.396       .  A
C531        C532   1.404       .  A
C531        H535   1.085       .  S
C532       C1341   1.407       .  A
C532        C603   1.480       .  S
C533       C1340   1.407       .  A
C533        H536   1.084       .  S
Zn537       O541   1.962       .  S
Zn537       O542   2.022       .  S
Zn537       O546   2.038       .  S
Zn537       O553   2.016       .  S
Zn538       O541   1.954       .  S
Zn538       O543   2.005       .  S
Zn538       O545   2.009       .  S
Zn538       O549   2.022       .  S
Zn539       O541   1.954       .  S
Zn539       O544   1.995       .  S
Zn539       O547   2.026       .  S
Zn539       O550   2.018       .  S
Zn540       O541   1.954       .  S
Zn540       O548   2.007       .  S
Zn540       O551   2.006       .  S
Zn540       O552   2.014       .  S
O542        C554   1.274       .  A
O543        C555   1.272       .  A
O544        C556   1.268       .  A
O545        C554   1.273       .  A
O546        C556   1.274       .  A
O547        C555   1.274       .  A
O548        C557   1.272       .  A
O549        C558   1.273       .  A
O550        C557   1.273       .  A
O551        C558   1.272       .  A
O552        C559   1.272       .  A
O553        C559   1.274       .  A
C554        C780   1.486       .  S
C555        C573   1.483       .  S
C556        C590   1.509       .  S
C557        C643   1.483       .  S
C558        C600   1.469       .  S
C559        C583   1.484       .  S
C560        C561   1.403       .  A
C560        C565   1.403       .  A
C560        C570   1.475       .  S
C561        C562   1.402       .  A
C561        H566   1.084       .  S
C562        C563   1.402       .  A
C562        C580   1.474       .  S
C563        C564   1.401       .  A
C563        H567   1.085       .  S
C564        C565   1.402       .  A
C564        C763   1.488       .  S
C565        H568   1.084       .  S
C569        C570   1.406       .  A
C569        C574   1.405       .  A
C569       Br576   1.931       .  S
C570        C571   1.405       .  A
C571        C572   1.409       .  A
C571       Br578   1.930       .  S
C572        C573   1.416       .  A
C572       Br577   1.929       .  S
C573        C574   1.415       .  A
C574       Br575   1.929       .  S
C579        C580   1.405       .  A
C579        C584   1.408       .  A
C579       Br586   1.931       .  S
C580        C581   1.406       .  A
C581        C582   1.406       .  A
C581       Br588   1.931       .  S
C589        C590   1.430       .  A
C589        C594   1.406       .  A
C589       Br596   1.940       .  S
C590        C591   1.428       .  A
C591        C592   1.413       .  A
C591       Br598   1.936       .  S
C592        C593   1.406       .  A
C592       Br597   1.931       .  S
C593        C594   1.404       .  A
C594       Br595   1.934       .  S
C599        C600   1.406       .  A
C599        C604   1.403       .  A
C599       Br606   1.929       .  S
C600        C601   1.407       .  A
C601        C602   1.409       .  A
C601       Br608   1.928       .  S
C602        C603   1.411       .  A
C602       Br607   1.927       .  S
C603        C604   1.410       .  A
C604       Br605   1.929       .  S
C609        C610   1.407       .  A
C609        C614   1.407       .  A
C609       Br616   1.931       .  S
C610       C1419   1.405       .  A
C611       C1418   1.405       .  A
C611        C612   1.407       .  A
C611       Br618   1.930       .  S
C612       C1017   1.413       .  A
C613       C1016   1.413       .  A
C619        C620   1.416       .  A
C619        C624   1.407       .  A
C619       Br626   1.931       .  S
C620       C1429   1.413       .  A
C621       C1428   1.413   1_455  A
C621        C622   1.407       .  A
C621       Br628   1.930       .  S
C622       C1431   1.407   1_455  A
C622       Br627   1.930       .  S
C623       C1430   1.407       .  A
C623        C624   1.406       .  A
C624       Br625   1.931       .  S
C629        C630   1.415       .  A
C629        C634   1.405       .  A
C629       Br636   1.936       .  S
C630       C1439   1.416       .  A
C631       C1438   1.416       .  A
C631        C632   1.411       .  A
C631       Br638   1.931       .  S
C632       C1441   1.407       .  A
C632       Br637   1.929       .  S
C633       C1440   1.407       .  A
C633        C634   1.408       .  A
C633       C1338   1.479       .  S
C634       Br635   1.929       .  S
C639        C640   1.406       .  A
C639        C644   1.409       .  A
C639       Br646   1.929       .  S
C640        C641   1.407       .  A
C641        C642   1.405       .  A
C641       Br648   1.930       .  S
C642        C643   1.415       .  A
C642       Br647   1.935       .  S
C643        C644   1.416       .  A
C644       Br645   1.931       .  S
C649        C650   1.411       .  A
C649        C654   1.403       .  A
C649       Br656   1.930       .  S
C650        C651   1.411       .  A
C651        C652   1.409       .  A
C651       Br658   1.928       .  S
C652        C653   1.408       .  A
C652       Br657   1.927       .  S
C653        C654   1.406       .  A
C654       Br655   1.929       .  S
C659        C660   1.425       .  A
C659        C664   1.405       .  A
C659       Br666   1.932       .  S
C660        C661   1.427       .  A
C661        C662   1.412       .  A
C661       Br668   1.934       .  S
C662        C663   1.404       .  A
C662       Br667   1.932       .  S
C663        C664   1.402       .  A
C664       Br665   1.934       .  S
C669        C670   1.406       .  A
C669        C674   1.408       .  A
C669       Br676   1.927       .  S
C670        C671   1.408       .  A
C671        C672   1.404       .  A
C671       Br678   1.930       .  S
C672        C673   1.408       .  A
C672       Br677   1.927       .  S
C673        C674   1.410       .  A
C674       Br675   1.925       .  S
C679        C680   1.428       .  A
C679        C684   1.411       .  A
C679       Br686   1.938       .  S
C680        C681   1.429       .  A
C681        C682   1.408       .  A
C681       Br688   1.937       .  S
C682        C683   1.404       .  A
C682       Br687   1.937       .  S
C683        C684   1.407       .  A
C684       Br685   1.935       .  S
C689       C1498   1.407       .  A
C689        C694   1.411       .  A
C689       Br696   1.938       .  S
C690       C1497   1.407       .  A
C690        C691   1.406       .  A
C691        C692   1.409       .  A
C691       Br698   1.939       .  S
C692       C1501   1.430       .  A
C692       Br697   1.940       .  S
C693       C1500   1.430   1_455  A
C693        C694   1.430       .  A
C694       Br695   1.939       .  S
C699        C700   1.414       .  A
C699        C704   1.407       .  A
C699       Br706   1.932       .  S
C700       C1509   1.415       .  A
C701       C1508   1.415       .  A
C701        C702   1.407       .  A
C701       Br708   1.932       .  S
C702        C703   1.406       .  A
C702       Br707   1.932       .  S
C703       C1512   1.406   1_455  A
C704       C1511   1.406       .  A
C704       Br705   1.931       .  S
C709       C1518   1.405       .  A
C709        C714   1.408       .  A
C709       Br716   1.933       .  S
C710       C1517   1.405   1_455  A
C710        C711   1.406       .  A
C711        C712   1.408       .  A
C711       Br718   1.930       .  S
C712        C713   1.415       .  A
C712       Br717   1.932       .  S
C713       C1522   1.420   1_455  A
C714       C1521   1.420       .  A
C714       Br715   1.930       .  S
C719        C720   1.406   1_455  A
C719        C724   1.407       .  A
C719       Br726   1.931       .  S
C720       C1529   1.406       .  A
C721       C1528   1.406       .  A
C721        C722   1.407       .  A
C721       Br728   1.931       .  S
C722       C1127   1.414       .  A
C723       C1126   1.414       .  A
C729        C730   1.416       .  A
C729        C734   1.405       .  A
C729       Br736   1.932       .  S
C730       C1539   1.415   1_455  A
C731       C1538   1.415       .  A
C731        C732   1.408       .  A
C731       Br738   1.931       .  S
C732       C1541   1.406       .  A
C732       Br737   1.930       .  S
C733       C1540   1.406   1_455  A
C733        C734   1.406       .  A
C734       Br735   1.933       .  S
C739        C740   1.422       .  A
C739        C744   1.410       .  A
C739       Br746   1.930       .  S
C740        C741   1.419       .  A
C741        C742   1.406       .  A
C741       Br748   1.931       .  S
C742        C743   1.404       .  A
C742       Br747   1.932       .  S
C743        C744   1.403       .  A
C744       Br745   1.931       .  S
C749        C750   1.407       .  A
C749        C754   1.409       .  A
C749       Br756   1.927       .  S
C750        C751   1.406       .  A
C751        C752   1.406       .  A
C751       Br758   1.929       .  S
C752        C753   1.412       .  A
C752       Br757   1.931       .  S
C753        C754   1.413       .  A
C754       Br755   1.930       .  S
C759        C760   1.431       .  A
C759        C764   1.411       .  A
C759       Br766   1.940       .  S
C760        C761   1.431       .  A
C761        C762   1.411       .  A
C761       Br768   1.940       .  S
C762        C763   1.407       .  A
C762       Br767   1.938       .  S
C763        C764   1.407       .  A
C764       Br765   1.937       .  S
C769        C770   1.421       .  A
C769        C774   1.412       .  A
C769       Br776   1.935       .  S
C770        C771   1.420       .  A
C771        C772   1.407       .  A
C771       Br778   1.940       .  S
C772        C773   1.415       .  A
C772       Br777   1.935       .  S
C773        C774   1.414       .  A
C774       Br775   1.936       .  S
C779        C780   1.417       .  A
C779        C784   1.407       .  A
C779       Br786   1.933       .  S
C780        C781   1.417       .  A
C781        C782   1.408       .  A
C781       Br788   1.933       .  S
C782        C783   1.406       .  A
C782       Br787   1.932       .  S
C783        C784   1.405       .  A
C784       Br785   1.932       .  S
C789        C790   1.410       .  A
C789        C794   1.409       .  A
C789       Br796   1.929       .  S
C790        C791   1.410       .  A
C791        C792   1.406       .  A
C791       Br798   1.931       .  S
C792        C793   1.409       .  A
C792       Br797   1.928       .  S
C793        C794   1.410       .  A
C794       Br795   1.928       .  S
C799        C800   1.407       .  A
C799        C804   1.408       .  A
C799       Br806   1.929       .  S
C800        C801   1.408       .  A
C801        C802   1.407       .  A
C801       Br808   1.931       .  S
C809        C810   1.404       .  A
C809        C814   1.408       .  A
C809       C1194   1.481       .  S
C810        C811   1.397       .  A
C810        H815   1.084       .  S
C811        C812   1.395       .  A
C811       C1187   1.474       .  S
C812        C813   1.402       .  A
C812        H816   1.085       .  S
C813        C814   1.407       .  A
C813       C1204   1.477       .  S
C814        H817   1.084       .  S
Zn818       O822   1.955       .  S
Zn818       O823   2.017       .  S
Zn818       O827   2.021       .  S
Zn818       O834   2.034       .  S
Zn819       O822   1.957       .  S
Zn819       O824   2.015       .  S
Zn819       O826   2.019       .  S
Zn819       O830   2.018       .  S
Zn820       O822   1.956       .  S
Zn820       O825   2.026       .  S
Zn820       O828   2.024       .  S
Zn820       O831   2.030       .  S
Zn821       O822   1.949       .  S
Zn821       O829   2.009       .  S
Zn821       O832   2.019       .  S
Zn821       O833   2.012       .  S
O823        C835   1.271       .  A
O824        C836   1.273       .  A
O825        C837   1.275       .  A
O826        C835   1.271       .  A
O827        C837   1.273       .  A
O828        C836   1.274       .  A
O829        C838   1.272       .  A
O830        C839   1.272       .  A
O831        C838   1.273       .  A
O832        C839   1.274       .  A
O833        C840   1.272       .  A
O834        C840   1.276       .  A
C835       C1164   1.512       .  S
C836       C1197   1.476       .  S
C837       C1144   1.495       .  S
C838       C1174   1.499       .  S
C839       C1154   1.472       .  S
C840       C1207   1.481       .  S
C841        C846   1.404       .  A
C841       C1157   1.483       .  S
C842        C843   1.405       .  A
C842        H847   1.084       .  S
C843        C844   1.402       .  A
C843       C1147   1.476       .  S
C844        C845   1.399       .  A
C844        H848   1.084       .  S
C845       C1134   1.485       .  S
C846        H849   1.084       .  S
C850        C851   1.401       .  A
C850        C855   1.405       .  A
C850       C1124   1.475       .  S
C851        C852   1.397       .  A
C851        H856   1.084       .  S
C852        C853   1.396       .  A
C852       C1107   1.473       .  S
C853        C854   1.402       .  A
C853        H857   1.085       .  S
C854        C855   1.406       .  A
C854       C1114   1.475       .  S
C855        H858   1.084       .  S
Zn859       O864   2.009       .  S
Zn859       O868   2.010       .  S
Zn859       O875   2.018       .  S
Zn860       O863   1.956       .  S
Zn860       O865   2.012       .  S
Zn860       O867   2.014       .  S
Zn860       O871   2.014       .  S
Zn861       O863   1.956       .  S
Zn861       O866   2.029       .  S
Zn861       O869   2.021       .  S
Zn861       O872   2.020       .  S
Zn862       O870   2.012       .  S
Zn862       O873   2.022       .  S
Zn862       O874   2.019       .  S
O865        C877   1.270       .  A
O866        C878   1.275       .  A
O867        C876   1.272       .  A
O869        C877   1.272       .  A
O871        C880   1.273       .  A
O872        C879   1.271       .  A
O874        C881   1.273       .  A
O875        C881   1.274       .  A
C876       C1137   1.469       .  S
C877       C1084   1.509       .  S
C878       C1117   1.489       .  S
C879       C1097   1.509       .  S
C880       C1127   1.484   1_545  S
C881       C1077   1.474       .  S
C882        C883   1.403       .  A
C882        C887   1.402       .  A
C882       C1074   1.475       .  S
C883        C884   1.403       .  A
C883        H888   1.084       .  S
C884        C885   1.403       .  A
C884       C1177   1.496       .  S
C885        C886   1.405       .  A
C885        H889   1.084       .  S
C886        C887   1.404       .  A
C886       C1087   1.484       .  S
C887        H890   1.085       .  S
C891        C892   1.403       .  A
C891        C896   1.405       .  A
C891       C1067   1.478       .  S
C892        C893   1.397       .  A
C892        H897   1.084       .  S
C893        C894   1.397       .  A
C893       C1044   1.477       .  S
C894        C895   1.405       .  A
C894        H898   1.084       .  S
C895        C896   1.406       .  A
C895       C1054   1.481       .  S
C896        H899   1.084       .  S
Zn900       O904   1.959       .  S
Zn900       O905   2.007       .  S
Zn900       O909   2.024       .  S
Zn900       O916   2.017       .  S
Zn901       O906   2.026       .  S
Zn901       O908   2.036       .  S
Zn901       O912   2.012       .  S
Zn902       O904   1.953       .  S
Zn902       O907   2.003       .  S
Zn902       O910   2.004       .  S
Zn902       O913   2.011       .  S
Zn903       O911   2.020       .  S
Zn903       O914   2.027       .  S
Zn903       O915   2.011       .  S
O905        C917   1.273   1_655  A
O907        C919   1.271       .  A
O909        C919   1.273       .  A
O910        C918   1.272       .  A
O912        C921   1.272       .  A
O913        C920   1.272   1_655  A
O914        C921   1.272       .  A
O916        C922   1.273   1_655  A
C917       C1017   1.482       .  S
C918       C1034   1.484       .  S
C919       C1057   1.470       .  S
C920       C1024   1.481   1_455  S
C921       C1064   1.503       .  S
C922       C1104   1.480   1_554  S
C923        C924   1.402       .  A
C923        C928   1.403       .  A
C923       C1014   1.475       .  S
C924        C925   1.400       .  A
C924        H929   1.084       .  S
C925        C926   1.400   1_455  A
C925       C1094   1.486   1_554  S
C926        C927   1.402       .  A
C926        H930   1.085       .  S
C927        C928   1.404   1_655  A
C927       C1027   1.474       .  S
C928        H931   1.084       .  S
C932        C933   1.406       .  A
C932        C937   1.408       .  A
C932        C997   1.485       .  S
C933        C934   1.398       .  A
C933        H938   1.084       .  S
C935        C936   1.404       .  A
C935        H939   1.085       .  S
C936       C1007   1.480       .  S
C937        H940   1.084       .  S
Zn941       O945   1.962       .  S
Zn941       O946   2.022       .  S
Zn941       O950   2.038       .  S
Zn941       O957   2.016       .  S
Zn942       O945   1.954       .  S
Zn942       O947   2.005       .  S
Zn942       O949   2.009       .  S
Zn942       O953   2.022       .  S
Zn943       O945   1.954       .  S
Zn943       O948   1.995       .  S
Zn943       O951   2.026       .  S
Zn943       O954   2.018       .  S
Zn944       O945   1.954       .  S
Zn944       O952   2.007       .  S
Zn944       O955   2.006       .  S
Zn944       O956   2.014       .  S
O946        C958   1.274       .  A
O947        C959   1.272       .  A
O948        C960   1.268       .  A
O949        C958   1.273       .  A
O950        C960   1.274       .  A
O951        C959   1.274       .  A
O952        C961   1.272       .  A
O953        C962   1.273       .  A
O954        C961   1.273       .  A
O955        C962   1.272       .  A
O956        C963   1.272       .  A
O957        C963   1.274       .  A
C958       C1184   1.486       .  S
C959        C977   1.483       .  S
C960        C994   1.509       .  S
C961       C1047   1.483       .  S
C962       C1004   1.469       .  S
C963        C987   1.484       .  S
C964        C965   1.403       .  A
C964        C969   1.403       .  A
C964        C974   1.475       .  S
C965        C966   1.402       .  A
C965        H970   1.084       .  S
C966        C967   1.402       .  A
C966        C984   1.474       .  S
C967        C968   1.401       .  A
C967        H971   1.085       .  S
C968        C969   1.402       .  A
C968       C1167   1.488       .  S
C969        H972   1.084       .  S
C973        C974   1.406       .  A
C973        C978   1.405       .  A
C973       Br980   1.931       .  S
C974        C975   1.405       .  A
C975        C976   1.409       .  A
C975       Br982   1.930       .  S
C976        C977   1.416       .  A
C976       Br981   1.929       .  S
C977        C978   1.415       .  A
C978       Br979   1.929       .  S
C983        C984   1.405       .  A
C983        C988   1.408       .  A
C983       Br990   1.931       .  S
C984        C985   1.406       .  A
C985        C986   1.406       .  A
C985       Br992   1.931       .  S
C986       C1391   1.415   1_545  A
C986      Br1395   1.933   1_545  S
C987       C1390   1.415       .  A
C987       C1392   1.418       .  A
C988       C1391   1.418   1_545  A
C988      Br1393   1.932   1_545  S
Br989      C1392   1.932       .  S
Br991      C1390   1.933       .  S
C993        C994   1.430       .  A
C993        C998   1.406       .  A
C993      Br1000   1.940       .  S
C994        C995   1.428       .  A
C995        C996   1.413       .  A
C995      Br1002   1.936       .  S
C996        C997   1.406       .  A
C996      Br1001   1.931       .  S
C997        C998   1.404       .  A
C998       Br999   1.934       .  S
C1003      C1004   1.406       .  A
C1003      C1008   1.403       .  A
C1003     Br1010   1.929       .  S
C1004      C1005   1.407       .  A
C1005      C1006   1.409       .  A
C1005     Br1012   1.928       .  S
C1006      C1007   1.411       .  A
C1006     Br1011   1.927       .  S
C1007      C1008   1.410       .  A
C1008     Br1009   1.929       .  S
C1013      C1014   1.407   1_655  A
C1013      C1018   1.407       .  A
C1013     Br1020   1.931       .  S
C1015      C1016   1.407       .  A
C1015     Br1022   1.930       .  S
C1016     Br1425   1.924   1_545  S
C1017      C1422   1.414   1_455  A
C1018      C1421   1.414   1_655  A
C1018     Br1423   1.928       .  S
Br1019     C1422   1.928       .  S
Br1021     C1420   1.924       .  S
C1023      C1024   1.416       .  A
C1023      C1028   1.407       .  A
C1023     Br1030   1.931       .  S
C1025      C1026   1.407       .  A
C1025     Br1032   1.930       .  S
C1026     Br1031   1.930       .  S
C1027      C1028   1.406       .  A
C1028     Br1029   1.931       .  S
C1033      C1034   1.415   1_455  A
C1033      C1038   1.405   1_455  A
C1033     Br1040   1.936       .  S
C1035      C1036   1.411       .  A
C1035     Br1042   1.931       .  S
C1036     Br1041   1.929       .  S
C1037      C1038   1.408       .  A
C1038     Br1039   1.929       .  S
C1043      C1044   1.406       .  A
C1043      C1048   1.409       .  A
C1043     Br1050   1.929       .  S
C1044      C1045   1.407       .  A
C1045      C1046   1.405       .  A
C1045     Br1052   1.930       .  S
C1046      C1047   1.415       .  A
C1046     Br1051   1.935       .  S
C1047      C1048   1.416       .  A
C1048     Br1049   1.931       .  S
C1053      C1054   1.411       .  A
C1053      C1058   1.403       .  A
C1053     Br1060   1.930       .  S
C1054      C1055   1.411       .  A
C1055      C1056   1.409       .  A
C1055     Br1062   1.928       .  S
C1056      C1057   1.408       .  A
C1056     Br1061   1.927       .  S
C1057      C1058   1.406       .  A
C1058     Br1059   1.929       .  S
C1063      C1064   1.425       .  A
C1063      C1068   1.405       .  A
C1063     Br1070   1.932       .  S
C1064      C1065   1.427       .  A
C1065      C1066   1.412       .  A
C1065     Br1072   1.934       .  S
C1066      C1067   1.404       .  A
C1066     Br1071   1.932       .  S
C1067      C1068   1.402       .  A
C1068     Br1069   1.934       .  S
C1073      C1074   1.406       .  A
C1073      C1078   1.408       .  A
C1073     Br1080   1.927       .  S
C1074      C1075   1.408       .  A
C1075      C1076   1.404       .  A
C1075     Br1082   1.930       .  S
C1076      C1077   1.408       .  A
C1076     Br1081   1.927       .  S
C1077      C1078   1.410       .  A
C1078     Br1079   1.925       .  S
C1083      C1084   1.428       .  A
C1083      C1088   1.411       .  A
C1083     Br1090   1.938       .  S
C1084      C1085   1.429       .  A
C1085      C1086   1.408       .  A
C1085     Br1092   1.937       .  S
C1086      C1087   1.404       .  A
C1086     Br1091   1.937       .  S
C1087      C1088   1.407       .  A
C1088     Br1089   1.935       .  S
C1093      C1098   1.411       .  A
C1093     Br1100   1.938       .  S
C1094      C1095   1.406   1_455  A
C1095      C1096   1.409       .  A
C1095     Br1102   1.939       .  S
C1096     Br1101   1.940       .  S
C1097      C1098   1.430       .  A
C1098     Br1099   1.939       .  S
C1103      C1104   1.414   1_655  A
C1103      C1108   1.407       .  A
C1103     Br1110   1.932       .  S
C1105      C1106   1.407       .  A
C1105     Br1112   1.932       .  S
C1106      C1107   1.406       .  A
C1106     Br1111   1.932       .  S
C1108     Br1109   1.931       .  S
C1113      C1118   1.408       .  A
C1113     Br1120   1.933       .  S
C1114      C1115   1.406       .  A
C1115      C1116   1.408       .  A
C1115     Br1122   1.930       .  S
C1116      C1117   1.415       .  A
C1116     Br1121   1.932       .  S
C1118     Br1119   1.930       .  S
C1123      C1124   1.406       .  A
C1123      C1128   1.407       .  A
C1123     Br1130   1.931       .  S
C1125      C1126   1.407       .  A
C1125     Br1132   1.931       .  S
C1126     Br1535   1.928       .  S
C1127      C1532   1.416       .  A
C1128      C1531   1.416       .  A
C1128     Br1533   1.931       .  S
Br1129     C1532   1.931   1_545  S
Br1131     C1530   1.928       .  S
C1133      C1134   1.416       .  A
C1133      C1138   1.405       .  A
C1133     Br1140   1.932       .  S
C1135      C1136   1.408       .  A
C1135     Br1142   1.931       .  S
C1136     Br1141   1.930       .  S
C1137      C1138   1.406       .  A
C1138     Br1139   1.933       .  S
C1143      C1144   1.422       .  A
C1143      C1148   1.410       .  A
C1143     Br1150   1.930       .  S
C1144      C1145   1.419       .  A
C1145      C1146   1.406       .  A
C1145     Br1152   1.931       .  S
C1146      C1147   1.404       .  A
C1146     Br1151   1.932       .  S
C1147      C1148   1.403       .  A
C1148     Br1149   1.931       .  S
C1153      C1154   1.407       .  A
C1153      C1158   1.409       .  A
C1153     Br1160   1.927       .  S
C1154      C1155   1.406       .  A
C1155      C1156   1.406       .  A
C1155     Br1162   1.929       .  S
C1156      C1157   1.412       .  A
C1156     Br1161   1.931       .  S
C1157      C1158   1.413       .  A
C1158     Br1159   1.930       .  S
C1163      C1164   1.431       .  A
C1163      C1168   1.411       .  A
C1163     Br1170   1.940       .  S
C1164      C1165   1.431       .  A
C1165      C1166   1.411       .  A
C1165     Br1172   1.940       .  S
C1166      C1167   1.407       .  A
C1166     Br1171   1.938       .  S
C1167      C1168   1.407       .  A
C1168     Br1169   1.937       .  S
C1173      C1174   1.421       .  A
C1173      C1178   1.412       .  A
C1173     Br1180   1.935       .  S
C1174      C1175   1.420       .  A
C1175      C1176   1.407       .  A
C1175     Br1182   1.940       .  S
C1176      C1177   1.415       .  A
C1176     Br1181   1.935       .  S
C1177      C1178   1.414       .  A
C1178     Br1179   1.936       .  S
C1183      C1184   1.417       .  A
C1183      C1188   1.407       .  A
C1183     Br1190   1.933       .  S
C1184      C1185   1.417       .  A
C1185      C1186   1.408       .  A
C1185     Br1192   1.933       .  S
C1186      C1187   1.406       .  A
C1186     Br1191   1.932       .  S
C1187      C1188   1.405       .  A
C1188     Br1189   1.932       .  S
C1193      C1194   1.410       .  A
C1193      C1198   1.409       .  A
C1193     Br1200   1.929       .  S
C1194      C1195   1.410       .  A
C1195      C1196   1.406       .  A
C1195     Br1202   1.931       .  S
C1196      C1197   1.409       .  A
C1196     Br1201   1.928       .  S
C1197      C1198   1.410       .  A
C1198     Br1199   1.928       .  S
C1203      C1204   1.407       .  A
C1203      C1208   1.408       .  A
C1203     Br1210   1.929       .  S
C1204      C1205   1.408       .  A
C1205      C1206   1.407       .  A
C1205     Br1212   1.931       .  S
C1206      C1611   1.412       .  A
C1206     Br1615   1.929       .  S
C1207      C1610   1.412   1_545  A
C1207      C1612   1.411   1_545  A
C1208      C1611   1.411       .  A
C1208     Br1613   1.926       .  S
Br1209     C1612   1.926   1_545  S
Br1211     C1610   1.929   1_545  S
C1213      C1214   1.404       .  A
C1213      C1218   1.408       .  A
C1213      C1598   1.481       .  S
C1214      C1215   1.397       .  A
C1214      H1219   1.084       .  S
C1215      C1216   1.395       .  A
C1215      C1591   1.474       .  S
C1216      C1217   1.402       .  A
C1216      H1220   1.085       .  S
C1217      C1218   1.407       .  A
C1217      C1608   1.477       .  S
C1218      H1221   1.084       .  S
Zn1222     O1226   1.955       .  S
Zn1222     O1227   2.017       .  S
Zn1222     O1231   2.021       .  S
Zn1222     O1238   2.034       .  S
Zn1223     O1226   1.957       .  S
Zn1223     O1228   2.015       .  S
Zn1223     O1230   2.019       .  S
Zn1223     O1234   2.018       .  S
Zn1224     O1226   1.956       .  S
Zn1224     O1229   2.026       .  S
Zn1224     O1232   2.024       .  S
Zn1224     O1235   2.030       .  S
Zn1225     O1226   1.949       .  S
Zn1225     O1233   2.009       .  S
Zn1225     O1236   2.019       .  S
Zn1225     O1237   2.012       .  S
O1227      C1239   1.271       .  A
O1228      C1240   1.273       .  A
O1229      C1241   1.275       .  A
O1230      C1239   1.271       .  A
O1231      C1241   1.273       .  A
O1232      C1240   1.274       .  A
O1233      C1242   1.272       .  A
O1234      C1243   1.272       .  A
O1235      C1242   1.273       .  A
O1236      C1243   1.274       .  A
O1237      C1244   1.272       .  A
O1238      C1244   1.276       .  A
C1239      C1568   1.512       .  S
C1240      C1601   1.476       .  S
C1241      C1548   1.495       .  S
C1242      C1578   1.499       .  S
C1243      C1558   1.472       .  S
C1244      C1611   1.481       .  S
C1245      C1250   1.404       .  A
C1245      C1561   1.483       .  S
C1246      C1247   1.405       .  A
C1246      H1251   1.084       .  S
C1247      C1248   1.402       .  A
C1247      C1551   1.476       .  S
C1248      C1249   1.399       .  A
C1248      H1252   1.084       .  S
C1249      C1538   1.485       .  S
C1250      H1253   1.084       .  S
C1254      C1255   1.401       .  A
C1254      C1259   1.405       .  A
C1254      C1528   1.475       .  S
C1255      C1256   1.397       .  A
C1255      H1260   1.084       .  S
C1256      C1257   1.396       .  A
C1256      C1511   1.473       .  S
C1257      C1258   1.402       .  A
C1257      H1261   1.085       .  S
C1258      C1259   1.406       .  A
C1258      C1518   1.475       .  S
C1259      H1262   1.084       .  S
Zn1263     O1268   2.009       .  S
Zn1263     O1272   2.010       .  S
Zn1263     O1279   2.018       .  S
Zn1264     O1267   1.956       .  S
Zn1264     O1269   2.012       .  S
Zn1264     O1271   2.014       .  S
Zn1264     O1275   2.014       .  S
Zn1265     O1267   1.956       .  S
Zn1265     O1270   2.029       .  S
Zn1265     O1273   2.021       .  S
Zn1265     O1276   2.020       .  S
Zn1266     O1274   2.012       .  S
Zn1266     O1277   2.022       .  S
Zn1266     O1278   2.019       .  S
O1269      C1281   1.270       .  A
O1270      C1282   1.275       .  A
O1271      C1280   1.272       .  A
O1273      C1281   1.272       .  A
O1275      C1284   1.273       .  A
O1276      C1283   1.271       .  A
O1278      C1285   1.273       .  A
O1279      C1285   1.274       .  A
C1280      C1541   1.469       .  S
C1281      C1488   1.509       .  S
C1282      C1521   1.489       .  S
C1283      C1501   1.509       .  S
C1284      C1531   1.484       .  S
C1285      C1481   1.474       .  S
C1286      C1287   1.403       .  A
C1286      C1291   1.402       .  A
C1286      C1478   1.475       .  S
C1287      C1288   1.403       .  A
C1287      H1292   1.084       .  S
C1288      C1289   1.403       .  A
C1288      C1581   1.496       .  S
C1289      C1290   1.405       .  A
C1289      H1293   1.084       .  S
C1290      C1291   1.404       .  A
C1290      C1491   1.484       .  S
C1291      H1294   1.085       .  S
C1295      C1296   1.403       .  A
C1295      C1300   1.405       .  A
C1295      C1471   1.478       .  S
C1296      C1297   1.397       .  A
C1296      H1301   1.084       .  S
C1297      C1298   1.397       .  A
C1297      C1448   1.477       .  S
C1298      C1299   1.405       .  A
C1298      H1302   1.084       .  S
C1299      C1300   1.406       .  A
C1299      C1458   1.481       .  S
C1300      H1303   1.084       .  S
Zn1304     O1308   1.959       .  S
Zn1304     O1309   2.007       .  S
Zn1304     O1313   2.024       .  S
Zn1304     O1320   2.017       .  S
Zn1305     O1310   2.026       .  S
Zn1305     O1312   2.036       .  S
Zn1305     O1316   2.012       .  S
Zn1306     O1308   1.953       .  S
Zn1306     O1311   2.003       .  S
Zn1306     O1314   2.004       .  S
Zn1306     O1317   2.011       .  S
Zn1307     O1315   2.020       .  S
Zn1307     O1318   2.027       .  S
Zn1307     O1319   2.011       .  S
O1309      C1321   1.273   1_655  A
O1311      C1323   1.271       .  A
O1313      C1323   1.273       .  A
O1314      C1322   1.272       .  A
O1316      C1325   1.272       .  A
O1317      C1324   1.272   1_655  A
O1318      C1325   1.272       .  A
O1320      C1326   1.273   1_655  A
C1321      C1421   1.482   1_565  S
C1322      C1438   1.484       .  S
C1323      C1461   1.470       .  S
C1324      C1428   1.481   1_455  S
C1325      C1468   1.503       .  S
C1326      C1508   1.480   1_554  S
C1327      C1328   1.402       .  A
C1327      C1332   1.403       .  A
C1327      C1418   1.475       .  S
C1328      C1329   1.400       .  A
C1328      H1333   1.084       .  S
C1329      C1330   1.400   1_455  A
C1329      C1498   1.486   1_554  S
C1330      C1331   1.402       .  A
C1330      H1334   1.085       .  S
C1331      C1332   1.404   1_655  A
C1331      C1431   1.474       .  S
C1332      H1335   1.084       .  S
C1336      C1337   1.406       .  A
C1336      C1341   1.408       .  A
C1336      C1401   1.485       .  S
C1337      C1338   1.398       .  A
C1337      H1342   1.084       .  S
C1339      C1340   1.404       .  A
C1339      H1343   1.085       .  S
C1340      C1411   1.480       .  S
C1341      H1344   1.084       .  S
Zn1345     O1349   1.962       .  S
Zn1345     O1350   2.022       .  S
Zn1345     O1354   2.038       .  S
Zn1345     O1361   2.016       .  S
Zn1346     O1349   1.954       .  S
Zn1346     O1351   2.005       .  S
Zn1346     O1353   2.009       .  S
Zn1346     O1357   2.022       .  S
Zn1347     O1349   1.954       .  S
Zn1347     O1352   1.995       .  S
Zn1347     O1355   2.026       .  S
Zn1347     O1358   2.018       .  S
Zn1348     O1349   1.954       .  S
Zn1348     O1356   2.007       .  S
Zn1348     O1359   2.006       .  S
Zn1348     O1360   2.014       .  S
O1350      C1362   1.274       .  A
O1351      C1363   1.272       .  A
O1352      C1364   1.268       .  A
O1353      C1362   1.273       .  A
O1354      C1364   1.274       .  A
O1355      C1363   1.274       .  A
O1356      C1365   1.272       .  A
O1357      C1366   1.273       .  A
O1358      C1365   1.273       .  A
O1359      C1366   1.272       .  A
O1360      C1367   1.272       .  A
O1361      C1367   1.274       .  A
C1362      C1588   1.486       .  S
C1363      C1381   1.483       .  S
C1364      C1398   1.509       .  S
C1365      C1451   1.483       .  S
C1366      C1408   1.469       .  S
C1367      C1391   1.484       .  S
C1368      C1369   1.403       .  A
C1368      C1373   1.403       .  A
C1368      C1378   1.475       .  S
C1369      C1370   1.402       .  A
C1369      H1374   1.084       .  S
C1370      C1371   1.402       .  A
C1370      C1388   1.474       .  S
C1371      C1372   1.401       .  A
C1371      H1375   1.085       .  S
C1372      C1373   1.402       .  A
C1372      C1571   1.488       .  S
C1373      H1376   1.084       .  S
C1377      C1378   1.406       .  A
C1377      C1382   1.405       .  A
C1377     Br1384   1.931       .  S
C1378      C1379   1.405       .  A
C1379      C1380   1.409       .  A
C1379     Br1386   1.930       .  S
C1380      C1381   1.416       .  A
C1380     Br1385   1.929       .  S
C1381      C1382   1.415       .  A
C1382     Br1383   1.929       .  S
C1387      C1388   1.405       .  A
C1387      C1392   1.408       .  A
C1387     Br1394   1.931       .  S
C1388      C1389   1.406       .  A
C1389      C1390   1.406       .  A
C1389     Br1396   1.931       .  S
C1397      C1398   1.430       .  A
C1397      C1402   1.406       .  A
C1397     Br1404   1.940       .  S
C1398      C1399   1.428       .  A
C1399      C1400   1.413       .  A
C1399     Br1406   1.936       .  S
C1400      C1401   1.406       .  A
C1400     Br1405   1.931       .  S
C1401      C1402   1.404       .  A
C1402     Br1403   1.934       .  S
C1407      C1408   1.406       .  A
C1407      C1412   1.403       .  A
C1407     Br1414   1.929       .  S
C1408      C1409   1.407       .  A
C1409      C1410   1.409       .  A
C1409     Br1416   1.928       .  S
C1410      C1411   1.411       .  A
C1410     Br1415   1.927       .  S
C1411      C1412   1.410       .  A
C1412     Br1413   1.929       .  S
C1417      C1418   1.407   1_655  A
C1417      C1422   1.407       .  A
C1417     Br1424   1.931       .  S
C1419      C1420   1.407       .  A
C1419     Br1426   1.930       .  S
C1427      C1428   1.416       .  A
C1427      C1432   1.407       .  A
C1427     Br1434   1.931       .  S
C1429      C1430   1.407       .  A
C1429     Br1436   1.930       .  S
C1430     Br1435   1.930       .  S
C1431      C1432   1.406       .  A
C1432     Br1433   1.931       .  S
C1437      C1438   1.415   1_455  A
C1437      C1442   1.405   1_455  A
C1437     Br1444   1.936       .  S
C1439      C1440   1.411       .  A
C1439     Br1446   1.931       .  S
C1440     Br1445   1.929       .  S
C1441      C1442   1.408       .  A
C1442     Br1443   1.929       .  S
C1447      C1448   1.406       .  A
C1447      C1452   1.409       .  A
C1447     Br1454   1.929       .  S
C1448      C1449   1.407       .  A
C1449      C1450   1.405       .  A
C1449     Br1456   1.930       .  S
C1450      C1451   1.415       .  A
C1450     Br1455   1.935       .  S
C1451      C1452   1.416       .  A
C1452     Br1453   1.931       .  S
C1457      C1458   1.411       .  A
C1457      C1462   1.403       .  A
C1457     Br1464   1.930       .  S
C1458      C1459   1.411       .  A
C1459      C1460   1.409       .  A
C1459     Br1466   1.928       .  S
C1460      C1461   1.408       .  A
C1460     Br1465   1.927       .  S
C1461      C1462   1.406       .  A
C1462     Br1463   1.929       .  S
C1467      C1468   1.425       .  A
C1467      C1472   1.405       .  A
C1467     Br1474   1.932       .  S
C1468      C1469   1.427       .  A
C1469      C1470   1.412       .  A
C1469     Br1476   1.934       .  S
C1470      C1471   1.404       .  A
C1470     Br1475   1.932       .  S
C1471      C1472   1.402       .  A
C1472     Br1473   1.934       .  S
C1477      C1478   1.406       .  A
C1477      C1482   1.408       .  A
C1477     Br1484   1.927       .  S
C1478      C1479   1.408       .  A
C1479      C1480   1.404       .  A
C1479     Br1486   1.930       .  S
C1480      C1481   1.408       .  A
C1480     Br1485   1.927       .  S
C1481      C1482   1.410       .  A
C1482     Br1483   1.925       .  S
C1487      C1488   1.428       .  A
C1487      C1492   1.411       .  A
C1487     Br1494   1.938       .  S
C1488      C1489   1.429       .  A
C1489      C1490   1.408       .  A
C1489     Br1496   1.937       .  S
C1490      C1491   1.404       .  A
C1490     Br1495   1.937       .  S
C1491      C1492   1.407       .  A
C1492     Br1493   1.935       .  S
C1497      C1502   1.411       .  A
C1497     Br1504   1.938       .  S
C1498      C1499   1.406   1_455  A
C1499      C1500   1.409       .  A
C1499     Br1506   1.939       .  S
C1500     Br1505   1.940       .  S
C1501      C1502   1.430       .  A
C1502     Br1503   1.939       .  S
C1507      C1508   1.414   1_655  A
C1507      C1512   1.407       .  A
C1507     Br1514   1.932       .  S
C1509      C1510   1.407       .  A
C1509     Br1516   1.932       .  S
C1510      C1511   1.406       .  A
C1510     Br1515   1.932       .  S
C1512     Br1513   1.931       .  S
C1517      C1522   1.408       .  A
C1517     Br1524   1.933       .  S
C1518      C1519   1.406       .  A
C1519      C1520   1.408       .  A
C1519     Br1526   1.930       .  S
C1520      C1521   1.415       .  A
C1520     Br1525   1.932       .  S
C1522     Br1523   1.930       .  S
C1527      C1528   1.406       .  A
C1527      C1532   1.407       .  A
C1527     Br1534   1.931       .  S
C1529      C1530   1.407       .  A
C1529     Br1536   1.931       .  S
C1537      C1538   1.416       .  A
C1537      C1542   1.405       .  A
C1537     Br1544   1.932       .  S
C1539      C1540   1.408       .  A
C1539     Br1546   1.931       .  S
C1540     Br1545   1.930       .  S
C1541      C1542   1.406       .  A
C1542     Br1543   1.933       .  S
C1547      C1548   1.422       .  A
C1547      C1552   1.410       .  A
C1547     Br1554   1.930       .  S
C1548      C1549   1.419       .  A
C1549      C1550   1.406       .  A
C1549     Br1556   1.931       .  S
C1550      C1551   1.404       .  A
C1550     Br1555   1.932       .  S
C1551      C1552   1.403       .  A
C1552     Br1553   1.931       .  S
C1557      C1558   1.407       .  A
C1557      C1562   1.409       .  A
C1557     Br1564   1.927       .  S
C1558      C1559   1.406       .  A
C1559      C1560   1.406       .  A
C1559     Br1566   1.929       .  S
C1560      C1561   1.412       .  A
C1560     Br1565   1.931       .  S
C1561      C1562   1.413       .  A
C1562     Br1563   1.930       .  S
C1567      C1568   1.431       .  A
C1567      C1572   1.411       .  A
C1567     Br1574   1.940       .  S
C1568      C1569   1.431       .  A
C1569      C1570   1.411       .  A
C1569     Br1576   1.940       .  S
C1570      C1571   1.407       .  A
C1570     Br1575   1.938       .  S
C1571      C1572   1.407       .  A
C1572     Br1573   1.937       .  S
C1577      C1578   1.421       .  A
C1577      C1582   1.412       .  A
C1577     Br1584   1.935       .  S
C1578      C1579   1.420       .  A
C1579      C1580   1.407       .  A
C1579     Br1586   1.940       .  S
C1580      C1581   1.415       .  A
C1580     Br1585   1.935       .  S
C1581      C1582   1.414       .  A
C1582     Br1583   1.936       .  S
C1587      C1588   1.417       .  A
C1587      C1592   1.407       .  A
C1587     Br1594   1.933       .  S
C1588      C1589   1.417       .  A
C1589      C1590   1.408       .  A
C1589     Br1596   1.933       .  S
C1590      C1591   1.406       .  A
C1590     Br1595   1.932       .  S
C1591      C1592   1.405       .  A
C1592     Br1593   1.932       .  S
C1597      C1598   1.410       .  A
C1597      C1602   1.409       .  A
C1597     Br1604   1.929       .  S
C1598      C1599   1.410       .  A
C1599      C1600   1.406       .  A
C1599     Br1606   1.931       .  S
C1600      C1601   1.409       .  A
C1600     Br1605   1.928       .  S
C1601      C1602   1.410       .  A
C1602     Br1603   1.928       .  S
C1607      C1608   1.407       .  A
C1607      C1612   1.408       .  A
C1607     Br1614   1.929       .  S
C1608      C1609   1.408       .  A
C1609      C1610   1.407       .  A
C1609     Br1616   1.931       .  S
