geometry optimzed in LAMMPS
_audit_creation_date              2020-11-30 
_audit_creation_method            'lammps2cif' 
_symmetry_space_group_name_H-M    'P1' 
_symmetry_Int_Tables_number       1 
_symmetry_cell_setting            triclinic 
loop_ 
_symmetry_equiv_pos_as_xyz 
  x,y,z 
_cell_length_a                    35.41548314 
_cell_length_b                    35.40961199965826 
_cell_length_c                    29.29366824651292 
_cell_angle_alpha                 90.00364050157219 
_cell_angle_beta                  89.98981518524272 
_cell_angle_gamma                 120.3885936606669 
loop_ 
_atom_site_label 
_atom_site_type_symbol 
_atom_site_fract_x 
_atom_site_fract_y 
_atom_site_fract_z 
_atom_site_charge 
C1          C  0.33769229  0.66707221  0.20581906     0.48000
H2          H  0.33754556  0.66695809  0.16789504    -0.01000
C3          C  0.33802562  0.66733676  0.29448360     0.48000
H4          H  0.33809717  0.66748687  0.33241107    -0.01000
C5          C  0.36161052  0.71474289  0.22621634    -0.14700
C6          C  0.29016437  0.64334025  0.22659530    -0.14500
C7          C  0.36147081  0.64345098  0.22644039    -0.14900
C8          C  0.36199440  0.71481749  0.27372805    -0.14900
C9          C  0.29043625  0.64375307  0.27405636    -0.14400
C10         C  0.36139453  0.64333524  0.27399554    -0.14700
N11         N  0.15558103  0.40450009  0.71686295    -0.34100
N12         N  0.17379276  0.34343867  0.66865818    -0.54700
N13         N  0.26452561  0.39831435  0.69867766    -0.34100
N14         N  0.24402050  0.45599521  0.74797093    -0.54700
C15         C  0.11529481  0.37178342  0.70541598     0.29500
C16         C  0.15048156  0.42780426  0.75032438     0.29500
C17         C  0.26469801  0.36319964  0.68091476     0.29500
C18         C  0.30109576  0.42048339  0.72440907     0.29500
C19         C  0.13575987  0.33402137  0.64845448     0.38100
C20         C  0.19383120  0.32954132  0.63967055     0.38100
C21         C  0.22887496  0.48152407  0.76389043     0.38100
C22         C  0.28772329  0.47871921  0.75335085     0.38100
C23         C  0.08403354  0.37419416  0.73162433    -0.19400
C24         C  0.10627889  0.40932618  0.76044302    -0.19400
C25         C  0.30194095  0.36305150  0.69530100    -0.19400
C26         C  0.32476070  0.39903237  0.72307353    -0.19400
C27         C  0.13061175  0.31230646  0.60753110    -0.20400
C28         C  0.16750857  0.30926708  0.60202922    -0.20400
C29         C  0.26314761  0.52098973  0.77951099    -0.20400
C30         C  0.30061795  0.51924094  0.77279479    -0.20400
C31         C  0.10617082  0.34546971  0.66652178    -0.15800
C32         C  0.18423722  0.46731418  0.76891680    -0.15800
C33         C  0.31494402  0.46099013  0.74641344    -0.15800
C34         C  0.23583632  0.33564104  0.64673562    -0.15800
H35         H  0.04883301  0.35364014  0.72901682     0.17100
H36         H  0.09141125  0.42088303  0.78478761     0.17100
H37         H  0.31216265  0.34005474  0.68567350     0.17100
H38         H  0.35589624  0.40899039  0.73924518     0.17100
H39         H  0.10345213  0.30048735  0.58391806     0.15400
H40         H  0.17461132  0.29476540  0.57318456     0.15400
H41         H  0.26119440  0.54755935  0.79537237     0.15400
H42         H  0.33335774  0.54426601  0.78253507     0.15400
H43         H  0.18371527  0.41421033  0.69770290     0.28700
H44         H  0.24398604  0.40965032  0.68833583     0.28700
N45         N  0.08680564  0.79200233  0.76530694    -0.34100
N46         N  0.16667499  0.81951041  0.81403642    -0.54700
N47         N  0.21940563  0.86369544  0.73304519    -0.34100
N48         N  0.14189734  0.83446132  0.68337622    -0.54700
C49         C  0.07104714  0.76987410  0.80495503     0.29500
C50         C  0.06037364  0.76583887  0.73168189     0.29500
C51         C  0.24867363  0.85847590  0.75764575     0.29500
C52         C  0.23619042  0.87613142  0.69058694     0.29500
C53         C  0.13935806  0.80737152  0.85027104     0.38100
C54         C  0.20735778  0.83523644  0.83100195     0.38100
C55         C  0.10170153  0.81147981  0.66514639     0.38100
C56         C  0.16877027  0.86075682  0.65025021     0.38100
C57         C  0.03196992  0.73126034  0.79689491    -0.19400
C58         C  0.02574009  0.72831057  0.75047325    -0.19400
C59         C  0.28500675  0.86884232  0.73082515    -0.19400
C60         C  0.27733101  0.88044488  0.68867298    -0.19400
C61         C  0.16302800  0.81623260  0.89051851    -0.20400
C62         C  0.20608494  0.83348819  0.87825919    -0.20400
C63         C  0.10274028  0.82325643  0.61983944    -0.20400
C64         C  0.14517785  0.85552953  0.61067127    -0.20400
C65         C  0.09343286  0.78094112  0.84711289    -0.15800
C66         C  0.06871640  0.77250539  0.68446212    -0.15800
C67         C  0.21470208  0.88197738  0.65303330    -0.15800
C68         C  0.24491197  0.84747736  0.80433173    -0.15800
H69         H  0.01192375  0.70610016  0.82136425     0.17100
H70         H  0.99955419  0.70093389  0.73235069     0.17100
H71         H  0.31425335  0.86840982  0.74060615     0.17100
H72         H  0.29904404  0.88956459  0.65957427     0.17100
H73         H  0.15030968  0.80873704  0.92498524     0.15400
H74         H  0.23321815  0.84276688  0.90139914     0.15400
H75         H  0.07627298  0.80807260  0.59536757     0.15400
H76         H  0.15793406  0.87001735  0.57759562     0.15400
H77         H  0.11465527  0.82270125  0.76155216     0.28700
H78         H  0.19158068  0.86289757  0.74562862     0.28700
N79         N  0.75886706  0.64395150  0.29698188    -0.34100
N80         N  0.84688342  0.70439367  0.33282265    -0.54700
N81         N  0.87480410  0.65445144  0.27626519    -0.34100
N82         N  0.78894176  0.59831295  0.23981554    -0.54700
C83         C  0.75302295  0.67333028  0.32047422     0.29500
C84         C  0.72312457  0.62069180  0.27053374     0.29500
C85         C  0.91310668  0.68746901  0.29198737     0.29500
C86         C  0.88410356  0.63321332  0.24393316     0.29500
C87         C  0.82185925  0.70846027  0.36510083     0.38100
C88         C  0.88485392  0.71435532  0.35369798     0.38100
C89         C  0.74557152  0.57184479  0.23378851     0.38100
C90         C  0.80807646  0.57616651  0.22440423     0.38100
C91         C  0.71318049  0.66915264  0.30847141    -0.19400
C92         C  0.69438571  0.63605023  0.27666229    -0.19400
C93         C  0.94741956  0.68796801  0.26853876    -0.19400
C94         C  0.92908005  0.65376597  0.23799706    -0.19400
C95         C  0.84502084  0.72390859  0.40550470    -0.20400
C96         C  0.88503602  0.72760602  0.39828824    -0.20400
C97         C  0.73711773  0.53319720  0.21278838    -0.20400
C98         C  0.77685149  0.53589655  0.20697330    -0.20400
C99         C  0.77755735  0.69588914  0.35921975    -0.15800
C100        C  0.71386313  0.58298003  0.24535564    -0.15800
C101        C  0.85346534  0.59259265  0.22465089    -0.15800
C102        C  0.91753233  0.70773623  0.33445656    -0.15800
H103        H  0.69820349  0.68648187  0.32314782     0.17100
H104        H  0.66228086  0.62325218  0.26161041     0.17100
H105        H  0.98204069  0.70864740  0.27542167     0.17100
H106        H  0.94687088  0.64353939  0.21606104     0.17100
H107        H  0.83359057  0.73003773  0.43737751     0.15400
H108        H  0.91058561  0.73707054  0.42354381     0.15400
H109        H  0.70566468  0.50583033  0.20292799     0.15400
H110        H  0.78212489  0.51112660  0.19164519     0.15400
H111        H  0.78168098  0.63493488  0.30534130     0.28700
H112        H  0.84525968  0.64177313  0.29345007     0.28700
Zn113      Zn  0.06115203  0.55731817  0.99623995     1.49700
Zn114      Zn  0.98427482  0.45993915  0.95397358     1.49400
Zn115      Zn  0.00828121  0.48464096  0.06407468     1.49100
Zn116      Zn  0.95398487  0.51838878  0.99658858     1.49500
O117        O  0.00181434  0.50485660  0.00267982    -1.81600
O118        O  0.08792143  0.54623331  0.94140558    -0.72200
O119        O  0.97274791  0.40365085  0.98424453    -0.72100
O120        O  0.07098373  0.51740911  0.09593891    -0.71600
O121        O  0.03696497  0.48135666  0.91303573    -0.72300
O122        O  0.10687398  0.57382818  0.04991703    -0.71900
O123        O  0.98770625  0.42009587  0.05830600    -0.72400
O124        O  0.92999029  0.51267169  0.05958707    -0.71800
O125        O  0.92785296  0.44397024  0.91421680    -0.72600
O126        O  0.96724821  0.49247202  0.10571442    -0.72000
O127        O  0.90240866  0.48172708  0.94908445    -0.72400
O128        O  0.98161241  0.58244647  0.97983624    -0.72400
O129        O  0.05387246  0.60907462  0.98265329    -0.72100
C130        C  0.07512248  0.51532671  0.91244995     0.79600
C131        C  0.97500236  0.39288734  0.02525433     0.80100
C132        C  0.10593010  0.55344305  0.08633254     0.79100
C133        C  0.93873550  0.50375351  0.09893505     0.79500
C134        C  0.89829432  0.45448427  0.91790525     0.80600
C135        C  0.02097618  0.61393882  0.97635153     0.79700
Zn136      Zn  0.94173484  0.49996652  0.48271577     1.49700
Zn137      Zn  0.02748676  0.48526647  0.46430195     1.49400
Zn138      Zn  0.04808977  0.57650177  0.48149256     1.49100
Zn139      Zn  0.99735777  0.50422818  0.56471278     1.49500
O140        O  0.00313994  0.51600730  0.49829054    -1.81600
O141        O  0.92219895  0.45416225  0.43253340    -0.72200
O142        O  0.08545466  0.52110525  0.42522883    -0.72100
O143        O  0.01726485  0.60252047  0.45001517    -0.71600
O144        O  0.98075792  0.44667874  0.42176875    -0.72300
O145        O  0.94529746  0.55551051  0.45707026    -0.71900
O146        O  0.10166867  0.58871675  0.43953251    -0.72400
O147        O  0.03088841  0.56318724  0.59541814    -0.71800
O148        O  0.03339556  0.44524200  0.50853298    -0.72600
O149        O  0.06680150  0.61101020  0.53905325    -0.72000
O150        O  0.01866041  0.46227047  0.57738388    -0.72400
O151        O  0.93446491  0.47410177  0.59385692    -0.72400
O152        O  0.89368329  0.47253891  0.53628853    -0.72100
C153        C  0.94167582  0.43661091  0.41279841     0.79600
C154        C  0.11056202  0.56226766  0.41906043     0.80100
C155        C  0.97767909  0.59256436  0.44511077     0.79100
C156        C  0.05486636  0.60211182  0.58052299     0.79500
C157        C  0.02875953  0.43971333  0.55157518     0.80600
C158        C  0.89686643  0.46410268  0.57827283     0.79700
N159        N  0.78208884  0.11219375  0.26372644    -0.34100
N160        N  0.84817280  0.18223763  0.31406885    -0.54700
N161        N  0.89546594  0.22774009  0.22901213    -0.34100
N162        N  0.82687173  0.15975022  0.17858891    -0.54700
C163        C  0.76539086  0.09917403  0.30625897     0.29500
C164        C  0.74775960  0.09637954  0.23473808     0.29500
C165        C  0.90839707  0.26214147  0.25752677     0.29500
C166        C  0.90751415  0.24432577  0.18635519     0.29500
C167        C  0.82833171  0.15600835  0.35034916     0.38100
C168        C  0.87810819  0.22156378  0.33076469     0.38100
C169        C  0.78753941  0.12995845  0.16167933     0.38100
C170        C  0.85307640  0.18005481  0.14240145     0.38100
C171        C  0.72044849  0.07116702  0.30344126    -0.19400
C172        C  0.70928822  0.07004003  0.25853134    -0.19400
C173        C  0.93139612  0.30092025  0.23318267    -0.19400
C174        C  0.93156512  0.28972549  0.18847000    -0.19400
C175        C  0.84729643  0.17837631  0.39049071    -0.20400
C176        C  0.87830949  0.22022671  0.37804610    -0.20400
C177        C  0.78878118  0.13055140  0.11439045    -0.20400
C178        C  0.83067390  0.16161764  0.10211652    -0.20400
C179        C  0.78812986  0.11614497  0.34785610    -0.15800
C180        C  0.74927222  0.10657312  0.18795590    -0.15800
C181        C  0.89273056  0.22041201  0.14514495    -0.15800
C182        C  0.89916762  0.26007810  0.30461118    -0.15800
H183        H  0.69742431  0.05572377  0.33112615     0.17100
H184        H  0.67628018  0.05267809  0.24513247     0.17100
H185        H  0.94585509  0.33400793  0.24612699     0.17100
H186        H  0.94501430  0.31267994  0.16043072     0.17100
H187        H  0.83729477  0.16696132  0.42509508     0.15400
H188        H  0.89741202  0.24720111  0.40108911     0.15400
H189        H  0.76187093  0.11153051  0.09125722     0.15400
H190        H  0.84204731  0.17208284  0.06758415     0.15400
H191        H  0.81489799  0.13069801  0.25493225     0.28700
H192        H  0.87984954  0.19489035  0.23809149     0.28700
N193        N  0.35359701  0.11360902  0.19939355    -0.34100
N194        N  0.40076396  0.19389982  0.25036627    -0.54700
N195        N  0.35676609  0.22841179  0.19719092    -0.34100
N196        N  0.30523729  0.14615087  0.14747619    -0.54700
C197        C  0.37235849  0.10110385  0.23163695     0.29500
C198        C  0.32377088  0.07720040  0.17727744     0.29500
C199        C  0.37466926  0.25919821  0.23025810     0.29500
C200        C  0.32759327  0.23521387  0.17447095     0.29500
C201        C  0.42306062  0.17450858  0.26450419     0.38100
C202        C  0.42384226  0.23590072  0.26427786     0.38100
C203        C  0.29726344  0.11138625  0.12145180     0.38100
C204        C  0.29965046  0.17350906  0.11984427     0.38100
C205        C  0.35371220  0.05595245  0.23047127    -0.19400
C206        C  0.32320324  0.04088843  0.19589786    -0.19400
C207        C  0.35606618  0.28550735  0.22897513    -0.19400
C208        C  0.32655519  0.27054302  0.19342987    -0.19400
C209        C  0.46020133  0.20415394  0.28839554    -0.20400
C210        C  0.46067636  0.24314614  0.28827555    -0.20400
C211        C  0.28400661  0.11544831  0.07808264    -0.20400
C212        C  0.28557779  0.15495683  0.07705728    -0.20400
C213        C  0.40871961  0.12978886  0.25864706    -0.15800
C214        C  0.30407598  0.07725773  0.13554219    -0.15800
C215        C  0.30842798  0.21554446  0.13249459    -0.15800
C216        C  0.41044556  0.26678693  0.25800548    -0.15800
H217        H  0.36252499  0.03615232  0.25098811     0.17100
H218        H  0.30424411  0.00733466  0.18424353     0.17100
H219        H  0.36424749  0.31367362  0.25015956     0.17100
H220        H  0.30774283  0.28501485  0.18161905     0.17100
H221        H  0.48418734  0.19823069  0.30460511     0.16200
H222        H  0.48509484  0.27320845  0.30434821     0.15400
H223        H  0.27546176  0.09295504  0.04973371     0.15400
H224        H  0.27836352  0.16895153  0.04784233     0.15400
H225        H  0.36555308  0.14531179  0.18777874     0.28700
H226        H  0.36898744  0.20901059  0.18551084     0.28700
N227        N  0.62007518  0.73950574  0.80524656    -0.34100
N228        N  0.67723283  0.82643715  0.84407545    -0.54700
N229        N  0.62138311  0.85393556  0.79862296    -0.34100
N230        N  0.56831490  0.76928986  0.75768229    -0.54700
C231        C  0.65144613  0.73403493  0.82494582     0.29500
C232        C  0.59666891  0.70496601  0.77722458     0.29500
C233        C  0.65389305  0.89221991  0.81509641     0.29500
C234        C  0.59865660  0.86347334  0.76827555     0.29500
C235        C  0.68851748  0.80261345  0.87080841     0.38100
C236        C  0.68913075  0.86384115  0.86721858     0.38100
C237        C  0.54390915  0.72629059  0.74815014     0.38100
C238        C  0.54449490  0.78746595  0.74489257     0.38100
C239        C  0.64802323  0.69542912  0.80932211    -0.19400
C240        C  0.61369198  0.67726949  0.77884395    -0.19400
C241        C  0.65184135  0.92667751  0.79514990    -0.19400
C242        C  0.61714727  0.90854526  0.76528877    -0.19400
C243        C  0.70995101  0.82605520  0.90966354    -0.20400
C244        C  0.71024610  0.86490204  0.90742006    -0.20400
C245        C  0.50443160  0.71709890  0.72862996    -0.20400
C246        C  0.50482313  0.75597515  0.72657527    -0.20400
C247        C  0.67840294  0.75943807  0.86141431    -0.15800
C248        C  0.55819918  0.69600812  0.75353481    -0.15800
C249        C  0.55966448  0.83257075  0.74627147    -0.15800
C250        C  0.67967538  0.89623587  0.85335748    -0.15800
H251        H  0.66741738  0.68120372  0.81991090     0.17100
H252        H  0.60157691  0.64634461  0.76131160     0.17100
H253        H  0.67220835  0.96119296  0.80277132     0.17100
H254        H  0.60581632  0.92647020  0.74509767     0.17100
H255        H  0.72286152  0.81571426  0.93737203     0.15400
H256        H  0.72345782  0.89049417  0.93297622     0.15400
H257        H  0.47829949  0.68578591  0.71662677     0.15400
H258        H  0.47914753  0.76062762  0.71266990     0.15400
H259        H  0.61117274  0.76182699  0.81584457     0.28700
H260        H  0.61123433  0.82352548  0.81297616     0.28700
Zn261      Zn  0.45335277  0.93624997  0.51321852     1.49700
Zn262      Zn  0.55048858  0.01853427  0.54949822     1.49400
Zn263      Zn  0.52158538  0.99186053  0.44153114     1.49100
Zn264      Zn  0.48408717  0.04153129  0.51060555     1.49500
O265        O  0.50249986  0.99718683  0.50380502    -1.81600
O266        O  0.46875482  0.91300491  0.56856331    -0.72200
O267        O  0.60670703  0.03251483  0.51652866    -0.72100
O268        O  0.48910705  0.92973198  0.40942406    -0.71600
O269        O  0.53307813  0.96841079  0.59311139    -0.72300
O270        O  0.43654907  0.89111087  0.45894625    -0.71900
O271        O  0.58707741  0.01588226  0.44340641    -0.72400
O272        O  0.48493358  0.06372611  0.44715262    -0.71800
O273        O  0.56525804  0.07535854  0.58718575    -0.72600
O274        O  0.50948269  0.03022722  0.40114015    -0.72000
O275        O  0.52103705  0.09495375  0.55593063    -0.72400
O276        O  0.42022019  0.01000218  0.53051177    -0.72400
O277        O  0.39947921  0.93899899  0.52873028    -0.72100
C278        C  0.50071119  0.92944425  0.59654796     0.79600
C279        C  0.61601811  0.03063513  0.47482016     0.80100
C280        C  0.45468565  0.89380544  0.42036571     0.79100
C281        C  0.49457559  0.05581461  0.40771946     0.79500
C282        C  0.55146213  0.10243339  0.58453300     0.80600
C283        C  0.39119487  0.96967017  0.53493155     0.79700
Zn284      Zn  0.54553262  0.52392787  0.54576042     1.49700
Zn285      Zn  0.44614583  0.49997878  0.50856415     1.49400
Zn286      Zn  0.51725466  0.52060444  0.43704694     1.49100
Zn287      Zn  0.48800508  0.43399943  0.50470433     1.49500
O288        O  0.49920504  0.49485537  0.49894740    -1.81600
O289        O  0.52187155  0.54812215  0.59123190    -0.72200
O290        O  0.42921962  0.53102808  0.45628053    -0.72100
O291        O  0.58064289  0.56898118  0.44169545    -0.71600
O292        O  0.45523172  0.53277644  0.56831988    -0.72300
O293        O  0.59856775  0.57385783  0.51566468    -0.71900
O294        O  0.48183063  0.54747953  0.40618796    -0.72400
O295        O  0.49274657  0.41455666  0.44173122    -0.71800
O296        O  0.39558565  0.43838698  0.51871652    -0.72600
O297        O  0.51014192  0.47158075  0.39559930    -0.72000
O298        O  0.42491516  0.39536412  0.52194191    -0.72400
O299        O  0.52526009  0.42112270  0.55218512    -0.72400
O300        O  0.56569691  0.48626843  0.58319452    -0.72100
C301        C  0.48684540  0.54923822  0.59680200     0.79600
C302        C  0.44740777  0.54822177  0.41800129     0.80100
C303        C  0.60769615  0.58702721  0.47449319     0.79100
C304        C  0.49979788  0.43185953  0.40220147     0.79500
C305        C  0.39234955  0.40115890  0.52471691     0.80600
C306        C  0.55414358  0.44576272  0.58140204     0.79700
Zn307      Zn  0.55998764  0.04369444  0.98278851     1.49700
Zn308      Zn  0.49043652  0.93620833  0.98473891     1.49400
Zn309      Zn  0.47764065  0.99096568  0.05653062     1.49100
Zn310      Zn  0.46999796  0.01407767  0.94730851     1.49500
O311        O  0.49918312  0.99600026  0.99289322    -1.81600
O312        O  0.59446047  0.01636606  0.96251440    -0.72200
O313        O  0.46465441  0.89153151  0.04036208    -0.72100
O314        O  0.52958395  0.03326984  0.09474745    -0.71600
O315        O  0.54910276  0.94385459  0.96610855    -0.72300
O316        O  0.58365590  0.06786660  0.04377348    -0.71900
O317        O  0.45084888  0.92972516  0.08999106    -0.72400
O318        O  0.42404221  0.02060643  0.98118639    -0.71800
O319        O  0.44675944  0.90851985  0.93366613    -0.72600
O320        O  0.43006358  0.00604199  0.05441025    -0.72000
O321        O  0.43585239  0.96176153  0.90738399    -0.72400
O322        O  0.50858741  0.07138648  0.90695047    -0.72400
O323        O  0.57377517  0.09497713  0.93697038    -0.72100
C324        C  0.58673753  0.97733816  0.95865153     0.79600
C325        C  0.44941702  0.89404016  0.07916632     0.80100
C326        C  0.56939124  0.06022559  0.08451626     0.79100
C327        C  0.41164622  0.01559194  0.02270329     0.79500
C328        C  0.42809208  0.92247745  0.90696083     0.80600
C329        C  0.54948025  0.10013292  0.90842357     0.79700
Zn330      Zn  0.47255190  0.47803775  0.06404969     1.49700
Zn331      Zn  0.50326023  0.55274517  0.99582780     1.49400
Zn332      Zn  0.56356613  0.50452164  0.00454682     1.49100
Zn333      Zn  0.47628317  0.45304912  0.95565345     1.49500
O334        O  0.50392519  0.49721671  0.00488953    -1.81600
O335        O  0.44835454  0.51583507  0.09426053    -0.72200
O336        O  0.56631258  0.60068420  0.98939499    -0.72100
O337        O  0.57544722  0.49380604  0.06905115    -0.71600
O338        O  0.47262652  0.57158665  0.04674129    -0.72300
O339        O  0.51532212  0.47838115  0.10906475    -0.71900
O340        O  0.60644341  0.56813662  0.99172780    -0.72400
O341        O  0.51493040  0.43288143  0.91958812    -0.71800
O342        O  0.47424729  0.54746298  0.93436529    -0.72600
O343        O  0.57771957  0.46826077  0.95635096    -0.72000
O344        O  0.45669355  0.48066479  0.90948517    -0.72400
O345        O  0.42318044  0.39944758  0.98221162    -0.72400
O346        O  0.42235435  0.41666519  0.05560422    -0.72100
C347        C  0.45212807  0.55258389  0.08349440     0.79600
C348        C  0.60290279  0.60196549  0.98709556     0.80100
C349        C  0.55433842  0.48567411  0.10650858     0.79100
C350        C  0.55463729  0.44217579  0.92425380     0.79500
C351        C  0.45801775  0.51700836  0.90451881     0.80600
C352        C  0.40655898  0.39011535  0.02217055     0.79700
C353        C  0.66940674  0.33554297  0.70443394     0.48000
H354        H  0.66917564  0.33636769  0.66652419    -0.01000
C355        C  0.66970666  0.33364354  0.79306418     0.48000
H356        H  0.66977707  0.33278023  0.83097151    -0.01000
C357        C  0.64625434  0.28746731  0.72388840    -0.14700
C358        C  0.71713485  0.36038487  0.72473844    -0.14500
C359        C  0.64499796  0.35781144  0.72637277    -0.14900
C360        C  0.64629176  0.28646723  0.77128200    -0.14900
C361        C  0.71733166  0.35930969  0.77232414    -0.14400
C362        C  0.64510843  0.35682187  0.77388531    -0.14700
C363        C  0.57385790  0.42337300  0.89205294    -0.16000
C364        C  0.58962207  0.40826134  0.86453881     0.08100
C365        C  0.60839762  0.39057946  0.83178363     0.09900
C366        C  0.62458024  0.37559388  0.80466447    -0.16800
C367        C  0.56893178  0.13924608  0.87743170    -0.16000
C368        C  0.58620817  0.17215541  0.85240852     0.08100
C369        C  0.60716011  0.21154580  0.82335991     0.09900
C370        C  0.62492456  0.24514103  0.79937747    -0.16800
C371        C  0.57374860  0.42744287  0.61339894    -0.16000
C372        C  0.58965607  0.41215425  0.64032066     0.08100
C373        C  0.60840600  0.39377415  0.67193231     0.09900
C374        C  0.62451244  0.37787080  0.69776205    -0.16800
C375        C  0.62539122  0.24730163  0.69395556    -0.16000
C376        C  0.60819352  0.21435933  0.66896881     0.08100
C377        C  0.58787859  0.17533625  0.63933270     0.09900
C378        C  0.57098676  0.14235097  0.61439446    -0.16800
C379        C  0.48440112  0.57076277  0.63686153    -0.16000
C380        C  0.49287841  0.59299711  0.67047407     0.08100
C381        C  0.51232705  0.62383553  0.70567427     0.09900
C382        C  0.53299965  0.65454231  0.73052299    -0.16800
C383        C  0.53569905  0.84842613  0.72073032    -0.16000
C384        C  0.51931532  0.86310028  0.69591400     0.08100
C385        C  0.50630522  0.88311504  0.66315854     0.09900
C386        C  0.50098663  0.90298476  0.63310443    -0.16800
C387        C  0.68850985  0.73651984  0.89562770    -0.16000
C388        C  0.68478951  0.71135234  0.92523741     0.08100
C389        C  0.66633912  0.67594550  0.95585383     0.09900
C390        C  0.64078806  0.64258562  0.97491190    -0.16800
C391        C  0.68643855  0.93008603  0.88517057    -0.16000
C392        C  0.67621870  0.95070399  0.90950518     0.08100
C393        C  0.65015700  0.96468569  0.93132912     0.09900
C394        C  0.62201336  0.97117856  0.94518289    -0.16800
C395        C  0.36962101  0.34759383  0.03102463    -0.16000
C396        C  0.34248008  0.31247329  0.04584000     0.08100
C397        C  0.31836536  0.27359977  0.07112263     0.09900
C398        C  0.30736430  0.24406037  0.09789225    -0.16800
C399        C  0.49173481  0.40402292  0.36362477    -0.16000
C400        C  0.47735322  0.37638538  0.33436932     0.08100
C401        C  0.45505551  0.34066560  0.30443120     0.09900
C402        C  0.43438965  0.30797088  0.28204594    -0.16800
C403        C  0.43190477  0.11236494  0.28309130    -0.16000
C404        C  0.45136129  0.10006600  0.30659692     0.08100
C405        C  0.47195534  0.08677527  0.33840737     0.09900
C406        C  0.48545825  0.07426173  0.36896374    -0.16800
C407        C  0.37468840  0.01958701  0.03446489    -0.16000
C408        C  0.34488521  0.02281241  0.04948435     0.08100
C409        C  0.31633887  0.03154941  0.07443551     0.09900
C410        C  0.30280326  0.04741341  0.10136266    -0.16800
C411        C  0.76343895  0.09768146  0.38968909    -0.16000
C412        C  0.73575136  0.08176131  0.41903450     0.08100
C413        C  0.69706002  0.06280098  0.44555507     0.09900
C414        C  0.66092944  0.04723319  0.46196724    -0.16800
C415        C  0.60143103  0.07865727  0.11956522    -0.16000
C416        C  0.63436011  0.08811638  0.14002255     0.08100
C417        C  0.67440488  0.09379580  0.15537870     0.09900
C418        C  0.70860991  0.09782563  0.16758989    -0.16800
C419        C  0.90547946  0.29954172  0.32581172    -0.16000
C420        C  0.90664132  0.33163068  0.34084442     0.08100
C421        C  0.90952919  0.36929704  0.35989440     0.09900
C422        C  0.91901187  0.40173663  0.38130146    -0.16800
C423        C  0.75721814  0.38370765  0.69475621    -0.16000
C424        C  0.78891671  0.40246052  0.66816498     0.08100
C425        C  0.82601033  0.42434840  0.63598525     0.09900
C426        C  0.85753313  0.44255804  0.60909688    -0.16800
C427        C  0.96135053  0.34810364  0.03524167    -0.16000
C428        C  0.94752304  0.31145105  0.04934251     0.08100
C429        C  0.92910201  0.27199402  0.07424885     0.09900
C430        C  0.91248285  0.24425798  0.10333954    -0.16800
C431        C  0.85955779  0.43504989  0.88618140    -0.16000
C432        C  0.82770094  0.41843938  0.85959129     0.08100
C433        C  0.78996284  0.39834033  0.82804254     0.09900
C434        C  0.75777164  0.38103043  0.80193959    -0.16800
C435        C  0.94800769  0.70533077  0.36505675    -0.16000
C436        C  0.96215288  0.68744268  0.38836725     0.08100
C437        C  0.96796128  0.65548974  0.41030114     0.09900
C438        C  0.97038116  0.62554385  0.42632354    -0.16800
C439        C  0.86946563  0.56604234  0.20497569    -0.16000
C440        C  0.88321886  0.54454797  0.18793156     0.08100
C441        C  0.90075189  0.52283892  0.16363884     0.09900
C442        C  0.91736023  0.50988201  0.13699522    -0.16800
C443        C  0.75220660  0.69467655  0.39834235    -0.16000
C444        C  0.72357006  0.68023833  0.42651042     0.08100
C445        C  0.68496774  0.65226331  0.45063992     0.09900
C446        C  0.65011600  0.62351962  0.46429704    -0.16800
C447        C  0.66994537  0.55443172  0.22909026    -0.16000
C448        C  0.63636153  0.52981282  0.20990905     0.08100
C449        C  0.60198686  0.50441376  0.17969517     0.09900
C450        C  0.57731748  0.49007922  0.14791585    -0.16800
C451        C  0.34759195  0.95780445  0.54840702    -0.16000
C452        C  0.31115222  0.94378821  0.56326757     0.08100
C453        C  0.27088544  0.92370952  0.58684713     0.09900
C454        C  0.24138161  0.90472446  0.61372308    -0.16800
C455        C  0.05594539  0.73368998  0.65793248    -0.16000
C456        C  0.05566953  0.70230080  0.64196079     0.08100
C457        C  0.06081215  0.66765924  0.62625591     0.09900
C458        C  0.06269981  0.63776230  0.60932683    -0.16800
C459        C  0.28273687  0.85015826  0.82598390    -0.16000
C460        C  0.31696255  0.85668076  0.84127056     0.08100
C461        C  0.35888086  0.87194940  0.85930845     0.09900
C462        C  0.39346962  0.89218298  0.87835102    -0.16800
C463        C  0.07047569  0.75484790  0.88665182    -0.16000
C464        C  0.05409316  0.72749615  0.91607584     0.08100
C465        C  0.03869531  0.69040398  0.94431131     0.09900
C466        C  0.02887598  0.65606358  0.96226673    -0.16800
C467        C  0.35077509  0.36499833  0.53764254    -0.16000
C468        C  0.31631520  0.34004143  0.55518376     0.08100
C469        C  0.27933989  0.32228800  0.58357916     0.09900
C470        C  0.25448034  0.32079891  0.61235535    -0.16800
C471        C  0.35725777  0.48328360  0.76826497    -0.16000
C472        C  0.38831244  0.50103149  0.79330839     0.08100
C473        C  0.41863485  0.51683216  0.82931672     0.09900
C474        C  0.43936025  0.52236502  0.86362088    -0.16800
C475        C  0.07078527  0.34086267  0.63844730    -0.16000
C476        C  0.05052222  0.35193643  0.61467813     0.08100
C477        C  0.03830546  0.37799527  0.58997318     0.09900
C478        C  0.03360843  0.40567907  0.57164979    -0.16800
C479        C  0.10553128  0.51803327  0.87888642    -0.16000
C480        C  0.13026390  0.51618876  0.85222953     0.08100
C481        C  0.15551973  0.50717345  0.82220214     0.09900
C482        C  0.17173711  0.49241351  0.79728381    -0.16800
C483        C  0.14509514  0.57172747  0.11720541    -0.16000
C484        C  0.17775699  0.58756018  0.14257534     0.08100
C485        C  0.21654447  0.60671980  0.17252175     0.09900
C486        C  0.24947620  0.62310887  0.19750293    -0.16800
C487        C  0.14920013  0.57918681  0.38777322    -0.16000
C488        C  0.18080375  0.59334732  0.36117478     0.08100
C489        C  0.21823855  0.61028754  0.32968806     0.09900
C490        C  0.25029297  0.62494994  0.30368160    -0.16800
C491        C  0.38183510  0.62364325  0.19687602    -0.16000
C492        C  0.39817028  0.60781400  0.17103959     0.08100
C493        C  0.41718482  0.58905639  0.13992432     0.09900
C494        C  0.43306435  0.57292133  0.11385464    -0.16800
C495        C  0.38079567  0.62254911  0.30369185    -0.16000
C496        C  0.39600834  0.60565379  0.32967377     0.08100
C497        C  0.41373626  0.58565535  0.36095683     0.09900
C498        C  0.42875448  0.56873624  0.38718509    -0.16800
C499        C  0.38099407  0.75502788  0.19652528    -0.16000
C500        C  0.39639556  0.78708593  0.17033778     0.08100
C501        C  0.41466073  0.82448989  0.13852374     0.09900
C502        C  0.43031463  0.85593930  0.11151676    -0.16800
C503        C  0.38257876  0.75509264  0.30325013    -0.16000
C504        C  0.39924946  0.78706477  0.32944646     0.08100
C505        C  0.41893635  0.82434311  0.36122837     0.09900
C506        C  0.43544239  0.85573805  0.38817738    -0.16800
loop_ 
_geom_bond_atom_site_label_1 
_geom_bond_atom_site_label_2 
_geom_bond_distance 
_geom_bond_site_symmetry_2 
_ccdc_geom_bond_type 
C1            H2   1.111       .  S
C1            C7   1.577       .  S
C1            C6   1.574       .  S
C1            C5   1.574       .  S
C3            H4   1.111       .  S
C3            C9   1.572       .  S
C3            C8   1.573       .  S
C3           C10   1.574       .  S
C5            C8   1.392       .  D
C5          C499   1.507       .  S
C6            C9   1.390       .  D
C6          C486   1.507       .  S
C7           C10   1.393       .  D
C7          C491   1.508       .  S
C8          C503   1.504       .  S
C9          C490   1.503       .  S
C10         C495   1.511       .  S
N11          C16   1.351       .  A
N11          C15   1.348       .  A
N11          H43   1.039       .  S
N12          C19   1.350       .  A
N12          C20   1.349       .  A
N13          C18   1.354       .  A
N13          C17   1.351       .  A
N13          H44   1.038       .  S
N14          C21   1.346       .  A
N14          C22   1.345       .  A
C15          C23   1.385       .  A
C15          C31   1.402       .  A
C16          C32   1.411       .  A
C16          C24   1.389       .  A
C17          C25   1.387       .  A
C17          C34   1.411       .  A
C18          C33   1.415       .  A
C18          C26   1.387       .  A
C19          C31   1.404       .  A
C19          C27   1.386       .  A
C20          C34   1.406       .  A
C20          C28   1.387       .  A
C21          C29   1.385       .  A
C21          C32   1.403       .  A
C22          C30   1.389       .  A
C22          C33   1.406       .  A
C23          C24   1.375       .  A
C23          H35   1.082       .  S
C24          H36   1.082       .  S
C25          C26   1.377       .  A
C25          H37   1.083       .  S
C26          H38   1.082       .  S
C27          C28   1.374       .  A
C27          H39   1.082       .  S
C28          H40   1.082       .  S
C29          C30   1.374       .  A
C29          H41   1.082       .  S
C30          H42   1.082       .  S
C31         C475   1.438       .  S
C32         C482   1.440       .  S
C33         C471   1.443       .  S
C34         C470   1.441       .  S
N45          C50   1.352       .  A
N45          C49   1.353       .  A
N45          H77   1.040       .  S
N46          C53   1.351       .  A
N46          C54   1.350       .  A
N47          C52   1.352       .  A
N47          C51   1.350       .  A
N47          H78   1.039       .  S
N48          C55   1.342       .  A
N48          C56   1.348       .  A
C49          C57   1.388       .  A
C49          C65   1.412       .  A
C50          C66   1.409       .  A
C50          C58   1.387       .  A
C51          C59   1.389       .  A
C51          C68   1.410       .  A
C52          C67   1.411       .  A
C52          C60   1.387       .  A
C53          C65   1.411       .  A
C53          C61   1.388       .  A
C54          C68   1.408       .  A
C54          C62   1.385       .  A
C55          C63   1.386       .  A
C55          C66   1.399       .  A
C56          C64   1.386       .  A
C56          C67   1.407       .  A
C57          C58   1.373       .  A
C57          H69   1.082       .  S
C58          H70   1.083   1_455  S
C59          C60   1.371       .  A
C59          H71   1.082       .  S
C60          H72   1.082       .  S
C61          C62   1.373       .  A
C61          H73   1.082       .  S
C62          H74   1.082       .  S
C63          C64   1.378       .  A
C63          H75   1.083       .  S
C64          H76   1.082       .  S
C65         C463   1.448       .  S
C66         C455   1.438       .  S
C67         C454   1.448       .  S
C68         C459   1.441       .  S
N79          C84   1.351       .  A
N79          C83   1.348       .  A
N79         H111   1.037       .  S
N80          C87   1.352       .  A
N80          C88   1.352       .  A
N81          C86   1.350       .  A
N81          C85   1.347       .  A
N81         H112   1.037       .  S
N82          C89   1.346       .  A
N82          C90   1.347       .  A
C83          C91   1.388       .  A
C83          C99   1.407       .  A
C84         C100   1.411       .  A
C84          C92   1.387       .  A
C85          C93   1.388       .  A
C85         C102   1.405       .  A
C86         C101   1.409       .  A
C86          C94   1.387       .  A
C87          C99   1.408       .  A
C87          C95   1.385       .  A
C88         C102   1.409       .  A
C88          C96   1.387       .  A
C89          C97   1.388       .  A
C89         C100   1.407       .  A
C90          C98   1.386       .  A
C90         C101   1.406       .  A
C91          C92   1.377       .  A
C91         H103   1.083       .  S
C92         H104   1.082       .  S
C93          C94   1.376       .  A
C93         H105   1.083       .  S
C94         H106   1.082       .  S
C95          C96   1.372       .  A
C95         H107   1.082       .  S
C96         H108   1.083       .  S
C97          C98   1.372       .  A
C97         H109   1.082       .  S
C98         H110   1.082       .  S
C99         C443   1.443       .  S
C100        C447   1.441       .  S
C101        C439   1.441       .  S
C102        C435   1.438       .  S
Zn113       O117   1.988   1_556  S
Zn113       O118   2.002       .  S
Zn113       O122   2.116   1_556  S
Zn113       O129   2.015       .  S
Zn114       O117   1.988   1_656  S
Zn114       O119   2.025       .  S
Zn114       O121   2.016   1_655  S
Zn114       O125   2.128       .  S
Zn115       O117   1.991       .  S
Zn115       O120   2.131       .  S
Zn115       O123   2.024   1_455  S
Zn115       O126   2.021   1_455  S
Zn116       O117   1.988   1_656  S
Zn116       O124   1.999   1_556  S
Zn116       O127   2.135       .  S
Zn116       O128   2.024       .  S
O118        C130   1.273       .  A
O119        C131   1.275   1_556  A
O120        C132   1.281       .  A
O121        C130   1.276       .  A
O122        C132   1.279       .  A
O123        C131   1.277       .  A
O124        C133   1.274       .  A
O125        C134   1.281       .  A
O126        C133   1.275       .  A
O127        C134   1.282       .  A
O128        C135   1.275   1_655  A
O129        C135   1.274       .  A
C130        C479   1.425       .  S
C131        C427   1.435       .  S
C132        C483   1.501       .  S
C133        C442   1.424       .  S
C134        C431   1.505       .  S
C135        C466   1.432       .  S
Zn136       O140   2.003   1_655  S
Zn136       O141   2.033       .  S
Zn136       O145   2.049       .  S
Zn136       O152   2.152       .  S
Zn137       O140   1.967       .  S
Zn137       O142   2.121       .  S
Zn137       O144   1.967   1_455  S
Zn137       O148   2.008       .  S
Zn138       O140   1.979       .  S
Zn138       O143   1.977       .  S
Zn138       O146   2.114       .  S
Zn138       O149   1.989       .  S
Zn139       O140   1.979   1_655  S
Zn139       O147   2.017   1_655  S
Zn139       O150   2.012   1_655  S
Zn139       O151   2.103       .  S
O141        C153   1.277       .  A
O142        C154   1.279       .  A
O143        C155   1.269   1_455  A
O144        C153   1.270       .  A
O145        C155   1.279       .  A
O146        C154   1.278       .  A
O147        C156   1.276       .  A
O148        C157   1.274       .  A
O149        C156   1.272       .  A
O150        C157   1.275       .  A
O151        C158   1.277       .  A
O152        C158   1.284       .  A
C153        C422   1.420       .  S
C154        C487   1.497       .  S
C155        C438   1.428       .  S
C156        C458   1.424       .  S
C157        C478   1.427       .  S
C158        C426   1.504       .  S
N159        C164   1.351       .  A
N159        C163   1.356       .  A
N159        H191   1.037       .  S
N160        C167   1.351       .  A
N160        C168   1.345       .  A
N161        C166   1.355       .  A
N161        C165   1.352       .  A
N161        H192   1.039       .  S
N162        C169   1.346       .  A
N162        C170   1.352       .  A
C163        C171   1.388       .  A
C163        C179   1.416       .  A
C164        C180   1.411       .  A
C164        C172   1.388       .  A
C165        C173   1.388       .  A
C165        C182   1.411       .  A
C166        C181   1.414       .  A
C166        C174   1.389       .  A
C167        C179   1.411       .  A
C167        C175   1.387       .  A
C168        C182   1.405       .  A
C168        C176   1.386       .  A
C169        C177   1.386       .  A
C169        C180   1.407       .  A
C170        C178   1.387       .  A
C170        C181   1.411       .  A
C171        C172   1.368       .  A
C171        H183   1.082       .  S
C172        H184   1.082       .  S
C173        C174   1.369       .  A
C173        H185   1.082       .  S
C174        H186   1.082       .  S
C175        C176   1.374       .  A
C175        H187   1.082       .  S
C176        H188   1.083       .  S
C177        C178   1.374       .  A
C177        H189   1.083       .  S
C178        H190   1.082       .  S
C179        C411   1.454       .  S
C180        C418   1.440       .  S
C181        C430   1.451       .  S
C182        C419   1.440       .  S
N193        C198   1.349       .  A
N193        C197   1.352       .  A
N193        H225   1.037       .  S
N194        C201   1.347       .  A
N194        C202   1.348       .  A
N195        C200   1.349       .  A
N195        C199   1.353       .  A
N195        H226   1.038       .  S
N196        C203   1.351       .  A
N196        C204   1.352       .  A
C197        C205   1.388       .  A
C197        C213   1.412       .  A
C198        C214   1.408       .  A
C198        C206   1.387       .  A
C199        C207   1.387       .  A
C199        C216   1.412       .  A
C200        C215   1.407       .  A
C200        C208   1.386       .  A
C201        C213   1.408       .  A
C201        C209   1.388       .  A
C202        C216   1.407       .  A
C202        C210   1.387       .  A
C203        C211   1.387       .  A
C203        C214   1.409       .  A
C204        C212   1.386       .  A
C204        C215   1.408       .  A
C205        C206   1.377       .  A
C205        H217   1.082       .  S
C206        H218   1.083       .  S
C207        C208   1.377       .  A
C207        H219   1.082       .  S
C208        H220   1.082       .  S
C209        C210   1.372       .  A
C209        H221   1.082       .  S
C210        H222   1.082       .  S
C211        C212   1.372       .  A
C211        H223   1.082       .  S
C212        H224   1.082       .  S
C213        C403   1.442       .  S
C214        C410   1.440       .  S
C215        C398   1.445       .  S
C216        C402   1.446       .  S
N227        C232   1.353       .  A
N227        C231   1.350       .  A
N227        H259   1.036       .  S
N228        C235   1.351       .  A
N228        C236   1.352       .  A
N229        C234   1.352       .  A
N229        C233   1.348       .  A
N229        H260   1.036       .  S
N230        C237   1.346       .  A
N230        C238   1.347       .  A
C231        C239   1.388       .  A
C231        C247   1.412       .  A
C232        C248   1.415       .  A
C232        C240   1.388       .  A
C233        C241   1.388       .  A
C233        C250   1.407       .  A
C234        C249   1.411       .  A
C234        C242   1.388       .  A
C235        C247   1.410       .  A
C235        C243   1.387       .  A
C236        C250   1.408       .  A
C236        C244   1.385       .  A
C237        C245   1.388       .  A
C237        C248   1.407       .  A
C238        C246   1.386       .  A
C238        C249   1.405       .  A
C239        C240   1.378       .  A
C239        H251   1.083       .  S
C240        H252   1.082       .  S
C241        C242   1.375       .  A
C241        H253   1.083       .  S
C242        H254   1.082       .  S
C243        C244   1.372       .  A
C243        H255   1.082       .  S
C244        H256   1.082       .  S
C245        C246   1.371       .  A
C245        H257   1.082       .  S
C246        H258   1.082       .  S
C247        C387   1.444       .  S
C248        C382   1.443       .  S
C249        C383   1.441       .  S
C250        C391   1.439       .  S
Zn261       O265   1.990       .  S
Zn261       O266   2.015       .  S
Zn261       O270   2.115       .  S
Zn261       O277   2.011       .  S
Zn262       O265   1.988   1_545  S
Zn262       O267   2.036       .  S
Zn262       O269   2.014   1_545  S
Zn262       O273   2.116       .  S
Zn263       O265   1.987       .  S
Zn263       O268   2.118       .  S
Zn263       O271   2.027   1_565  S
Zn263       O274   2.005   1_565  S
Zn264       O265   1.992   1_545  S
Zn264       O272   2.012       .  S
Zn264       O275   2.133       .  S
Zn264       O276   2.036       .  S
O266        C278   1.275       .  A
O267        C279   1.276       .  A
O268        C280   1.280       .  A
O269        C278   1.276       .  A
O270        C280   1.279       .  A
O271        C279   1.276       .  A
O272        C281   1.275       .  A
O273        C282   1.280       .  A
O274        C281   1.273       .  A
O275        C282   1.282       .  A
O276        C283   1.276   1_545  A
O277        C283   1.273       .  A
C278        C386   1.426       .  S
C279        C414   1.439       .  S
C280        C506   1.497       .  S
C281        C406   1.426       .  S
C282        C378   1.501       .  S
C283        C451   1.435       .  S
Zn284       O288   1.981       .  S
Zn284       O289   1.984       .  S
Zn284       O293   2.018       .  S
Zn284       O300   2.111       .  S
Zn285       O288   1.997       .  S
Zn285       O290   2.140       .  S
Zn285       O292   2.034       .  S
Zn285       O296   2.025       .  S
Zn286       O288   1.984       .  S
Zn286       O291   2.025       .  S
Zn286       O294   2.123       .  S
Zn286       O297   2.027       .  S
Zn287       O288   1.991       .  S
Zn287       O295   2.005       .  S
Zn287       O298   2.006       .  S
Zn287       O299   2.120       .  S
O289        C301   1.271       .  A
O290        C302   1.283       .  A
O291        C303   1.277       .  A
O292        C301   1.276       .  A
O293        C303   1.274       .  A
O294        C302   1.280       .  A
O295        C304   1.274       .  A
O296        C305   1.276       .  A
O297        C304   1.276       .  A
O298        C305   1.272       .  A
O299        C306   1.280       .  A
O300        C306   1.278       .  A
C301        C379   1.426       .  S
C302        C498   1.505       .  S
C303        C446   1.432       .  S
C304        C399   1.430       .  S
C305        C467   1.429       .  S
C306        C371   1.496       .  S
Zn307       O311   1.974   1_545  S
Zn307       O312   1.994       .  S
Zn307       O316   1.975   1_556  S
Zn307       O323   2.107       .  S
Zn308       O311   1.993       .  S
Zn308       O313   2.128   1_556  S
Zn308       O315   2.029       .  S
Zn308       O319   2.015       .  S
Zn309       O311   1.988   1_554  S
Zn309       O314   2.023   1_565  S
Zn309       O317   2.117       .  S
Zn309       O320   2.009   1_565  S
Zn310       O311   1.983   1_545  S
Zn310       O318   2.017       .  S
Zn310       O321   1.999   1_545  S
Zn310       O322   2.139       .  S
O312        C324   1.271   1_545  A
O313        C325   1.280       .  A
O314        C326   1.275       .  A
O315        C324   1.277       .  A
O316        C326   1.271       .  A
O317        C325   1.279       .  A
O318        C327   1.274   1_556  A
O319        C328   1.274       .  A
O320        C327   1.275       .  A
O321        C328   1.274       .  A
O322        C329   1.282       .  A
O323        C329   1.278       .  A
C324        C394   1.428       .  S
C325        C502   1.501       .  S
C326        C415   1.421       .  S
C327        C407   1.428       .  S
C328        C462   1.423       .  S
C329        C367   1.501       .  S
Zn330       O334   1.984       .  S
Zn330       O335   2.114       .  S
Zn330       O339   2.004       .  S
Zn330       O346   2.009       .  S
Zn331       O334   1.996   1_556  S
Zn331       O336   2.017       .  S
Zn331       O338   2.140   1_556  S
Zn331       O342   2.034       .  S
Zn332       O334   1.994       .  S
Zn332       O337   2.013       .  S
Zn332       O340   2.015   1_554  S
Zn332       O343   2.132   1_554  S
Zn333       O334   1.984   1_556  S
Zn333       O341   2.118       .  S
Zn333       O344   1.988       .  S
Zn333       O345   2.033       .  S
O335        C347   1.279       .  A
O336        C348   1.275       .  A
O337        C349   1.276       .  A
O338        C347   1.282       .  A
O339        C349   1.273       .  A
O340        C348   1.273       .  A
O341        C350   1.279       .  A
O342        C351   1.277       .  A
O343        C350   1.281       .  A
O344        C351   1.272       .  A
O345        C352   1.276   1_556  A
O346        C352   1.274       .  A
C347        C494   1.502       .  S
C348        C390   1.430       .  S
C349        C450   1.425       .  S
C350        C363   1.502       .  S
C351        C474   1.427       .  S
C352        C395   1.433       .  S
C353        H354   1.111       .  S
C353        C359   1.572       .  S
C353        C358   1.575       .  S
C353        C357   1.576       .  S
C355        H356   1.111       .  S
C355        C361   1.578       .  S
C355        C360   1.576       .  S
C355        C362   1.572       .  S
C357        C360   1.389       .  D
C357        C375   1.508       .  S
C358        C361   1.395       .  D
C358        C423   1.511       .  S
C359        C362   1.392       .  D
C359        C374   1.502       .  S
C360        C370   1.507       .  S
C361        C434   1.510       .  S
C362        C366   1.507       .  S
C363        C364   1.245       .  T
C364        C365   1.475       .  S
C365        C366   1.244       .  T
C367        C368   1.244       .  T
C368        C369   1.474       .  S
C369        C370   1.244       .  T
C371        C372   1.241       .  T
C372        C373   1.470       .  S
C373        C374   1.241       .  T
C375        C376   1.244       .  T
C376        C377   1.475       .  S
C377        C378   1.245       .  T
C379        C380   1.200       .  T
C380        C381   1.403       .  S
C381        C382   1.201       .  T
C383        C384   1.200       .  T
C384        C385   1.402       .  S
C385        C386   1.200       .  T
C387        C388   1.202       .  T
C388        C389   1.405       .  S
C389        C390   1.202       .  T
C391        C392   1.200       .  T
C392        C393   1.403       .  S
C393        C394   1.201       .  T
C395        C396   1.204       .  T
C396        C397   1.408       .  S
C397        C398   1.204       .  T
C399        C400   1.203       .  T
C400        C401   1.408       .  S
C401        C402   1.204       .  T
C403        C404   1.201       .  T
C404        C405   1.403       .  S
C405        C406   1.200       .  T
C407        C408   1.201       .  T
C408        C409   1.403       .  S
C409        C410   1.200       .  T
C411        C412   1.208       .  T
C412        C413   1.415       .  S
C413        C414   1.208       .  T
C415        C416   1.198       .  T
C416        C417   1.402       .  S
C417        C418   1.200       .  T
C419        C420   1.200       .  T
C420        C421   1.401       .  S
C421        C422   1.198       .  T
C423        C424   1.246       .  T
C424        C425   1.478       .  S
C425        C426   1.247       .  T
C427        C428   1.205       .  T
C428        C429   1.410       .  S
C429        C430   1.205       .  T
C431        C432   1.247       .  T
C432        C433   1.478       .  S
C433        C434   1.246       .  T
C435        C436   1.200       .  T
C436        C437   1.404       .  S
C437        C438   1.202       .  T
C439        C440   1.200       .  T
C440        C441   1.402       .  S
C441        C442   1.199       .  T
C443        C444   1.202       .  T
C444        C445   1.407       .  S
C445        C446   1.203       .  T
C447        C448   1.201       .  T
C448        C449   1.402       .  S
C449        C450   1.200       .  T
C451        C452   1.205       .  T
C452        C453   1.411       .  S
C453        C454   1.205       .  T
C455        C456   1.201       .  T
C456        C457   1.405       .  S
C457        C458   1.201       .  T
C459        C460   1.200       .  T
C460        C461   1.401       .  S
C461        C462   1.199       .  T
C463        C464   1.204       .  T
C464        C465   1.408       .  S
C465        C466   1.203       .  T
C467        C468   1.201       .  T
C468        C469   1.403       .  S
C469        C470   1.201       .  T
C471        C472   1.202       .  T
C472        C473   1.404       .  S
C473        C474   1.201       .  T
C475        C476   1.199       .  T
C476        C477   1.402       .  S
C477        C478   1.201       .  T
C479        C480   1.200       .  T
C480        C481   1.402       .  S
C481        C482   1.200       .  T
C483        C484   1.245       .  T
C484        C485   1.475       .  S
C485        C486   1.244       .  T
C487        C488   1.242       .  T
C488        C489   1.471       .  S
C489        C490   1.242       .  T
C491        C492   1.245       .  T
C492        C493   1.476       .  S
C493        C494   1.245       .  T
C495        C496   1.246       .  T
C496        C497   1.478       .  S
C497        C498   1.247       .  T
C499        C500   1.244       .  T
C500        C501   1.475       .  S
C501        C502   1.244       .  T
C503        C504   1.242       .  T
C504        C505   1.471       .  S
C505        C506   1.242       .  T
