geometry optimzed in LAMMPS
_audit_creation_date              2020-11-30 
_audit_creation_method            'lammps2cif' 
_symmetry_space_group_name_H-M    'P1' 
_symmetry_Int_Tables_number       1 
_symmetry_cell_setting            triclinic 
loop_ 
_symmetry_equiv_pos_as_xyz 
  x,y,z 
_cell_length_a                    38.76487466102579 
_cell_length_b                    38.81725182211801 
_cell_length_c                    29.76874284456478 
_cell_angle_alpha                 88.5020346557565 
_cell_angle_beta                  94.21888101997641 
_cell_angle_gamma                 120.0619519640708 
loop_ 
_atom_site_label 
_atom_site_type_symbol 
_atom_site_fract_x 
_atom_site_fract_y 
_atom_site_fract_z 
_atom_site_charge 
O1          O  0.40406158  0.13799924  0.30648194    -0.81070
O2          O  0.30260716  0.18523068  0.41575076    -0.65760
O3          O  0.33482950  0.13443068  0.33342139    -1.12360
C4          C  0.37190912  0.25239279  0.24894488     1.05820
O5          O  0.27240784  0.20130362  0.36031312    -0.78970
O6          O  0.27466126  0.18608243  0.27533861    -0.66550
Ni7        Ni  0.36691073  0.11161367  0.35215238     1.34870
C8          C  0.27616695  0.15881412  0.25469492     0.84560
O9          O  0.29684820  0.11228667  0.41427183    -0.79510
O10         O  0.33090375  0.08167998  0.39718880    -0.89780
C11         C  0.28076144  0.19980846  0.40184455     0.84130
O12         O  0.40235604  0.15187856  0.39531339    -0.67980
O13         O  0.34747976  0.25636165  0.27159760    -0.87270
C14         C  0.39860527  0.17594163  0.41990550     0.84960
C15         C  0.30472378  0.08395866  0.41841458     1.06530
H16         H  0.36699643  0.22428176  0.35146601     0.38330
O17         O  0.34251224  0.20344235  0.33691079    -1.09930
O18         O  0.30613760  0.15383771  0.25796596    -0.66580
Ni19       Ni  0.35656304  0.17825187  0.29282593     1.26350
O20         O  0.36851665  0.18107992  0.41565893    -0.66810
O21         O  0.37813412  0.22314440  0.25296501    -0.79100
C22         C  0.39309420  0.13720842  0.26502488     0.84340
O23         O  0.37053684  0.15090453  0.25229014    -0.66280
Ni24       Ni  0.31105285  0.22709950  0.31663813     1.27450
Ni25       Ni  0.31947814  0.15874843  0.37668408     1.26060
H26         H  0.31046415  0.11296704  0.31927396     0.38880
C27         C  0.20688382  0.34159598  0.16720170     0.02110
C28         C  0.20714726  0.37788152  0.16928545     0.02110
C29         C  0.17083684  0.37810999  0.16836459     0.02110
C30         C  0.13422743  0.34158146  0.16705483     0.02110
C31         C  0.13426011  0.30514913  0.16730070     0.02110
C32         C  0.17061460  0.30530455  0.16645444     0.02110
O33         O  0.20704947  0.11375490  0.23866627    -0.74600
O34         O  0.11583144  0.06246100  0.15373847    -0.74640
O35         O  0.16372715  0.03942042  0.19954669    -0.74690
O36         O  0.15868213  0.13507369  0.19370844    -0.74740
O37         O  0.19984632  0.15674364  0.13783002    -0.74670
O38         O  0.20297153  0.05942113  0.14216145    -0.74650
O39         O  0.15692427  0.08490170  0.09786848    -0.74630
O40         O  0.24743300  0.13281278  0.18217221    -0.74690
Ni41       Ni  0.15992087  0.08674264  0.19851816     1.25410
Ni42       Ni  0.20332836  0.10910897  0.13808931     1.25360
C43         C  0.24201547  0.13314977  0.22394431     0.87570
C44         C  0.12170333  0.06631346  0.11163042     0.87510
C45         C  0.18289332  0.03285995  0.17085621     0.87530
C46         C  0.17857847  0.16162670  0.16519040     0.87710
O47         O  0.45232097  0.40665510  0.14927794    -0.74600
O48         O  0.41253166  0.32008103  0.23189222    -0.74640
O49         O  0.48164928  0.36222012  0.19070464    -0.74690
O50         O  0.38416994  0.36385763  0.19099101    -0.74740
O51         O  0.35752988  0.31851340  0.13546036    -0.74670
O52         O  0.45746160  0.32171334  0.13053384    -0.74650
O53         O  0.38973573  0.27641034  0.17467935    -0.74630
O54         O  0.42348295  0.36349364  0.09174337    -0.74690
Ni55       Ni  0.43384730  0.36476899  0.19269038     1.25410
Ni56       Ni  0.40640069  0.31844733  0.13095367     1.25360
C57         C  0.44209203  0.39929676  0.10720073     0.87570
C58         C  0.39345762  0.28418947  0.21695241     0.87510
C59         C  0.48566125  0.34181776  0.16057566     0.87530
C60         C  0.35461409  0.34102735  0.16380802     0.87710
O61         O  0.39743959  0.12143396  0.18966429    -0.74600
O62         O  0.42688545  0.06991420  0.10446097    -0.74640
O63         O  0.36268667  0.04840993  0.15037422    -0.74690
O64         O  0.46193124  0.14396770  0.14225009    -0.74740
O65         O  0.48927358  0.12508230  0.19903401    -0.74670
O66         O  0.38897029  0.02767144  0.20659832    -0.74650
O67         O  0.45513441  0.05116983  0.16059199    -0.74630
O68         O  0.42425625  0.10112360  0.24570846    -0.74690
Ni69       Ni  0.41141375  0.09674307  0.14472523     1.25410
Ni70       Ni  0.44044776  0.07553222  0.20500138     1.25360
C71         C  0.40594985  0.11953320  0.23179405     0.87570
C72         C  0.44500073  0.05131808  0.11874266     0.87510
C73         C  0.35951737  0.02209895  0.17899805     0.87530
C74         C  0.49167818  0.15092659  0.16973166     0.87710
O75         O  0.01808357  0.26028264  0.57988236    -0.74600
O76         O  0.42586053  0.19936522  0.49595141    -0.74640
O77         O  0.47792074  0.18347293  0.54726631    -0.74690
O78         O  0.46471373  0.27401916  0.53324207    -0.74740
O79         O  0.00523884  0.29437059  0.47708436    -0.74670
O80         O  0.01824386  0.20189822  0.49092455    -0.74650
O81         O  0.46702625  0.21886437  0.44036610    -0.74630
O82         O  0.05728582  0.27775600  0.52244643    -0.74690
Ni83       Ni  0.47009977  0.22826386  0.54103679     1.25410
Ni84       Ni  0.01313035  0.24880158  0.48048673     1.25360
C85         C  0.05272278  0.28012969  0.56392055     0.87570
C86         C  0.43179240  0.19951441  0.45387439     0.87510
C87         C  0.49994812  0.17747292  0.52234424     0.87530
C88         C  0.48509864  0.30061600  0.50528415     0.87710
O89         O  0.23305282  0.46884872  0.56915364    -0.74600
O90         O  0.28606572  0.05748396  0.49107866    -0.74640
O91         O  0.21354276  0.01823548  0.52530425    -0.74690
O92         O  0.30698105  0.00735709  0.53460839    -0.74740
O93         O  0.28285523  0.46641527  0.47479683    -0.74670
O94         O  0.18949323  0.47640040  0.46644129    -0.74650
O95         O  0.26206206  0.01577147  0.43192127    -0.74630
O96         O  0.20977648  0.42687500  0.51027465    -0.74690
Ni97       Ni  0.26094205  0.01441778  0.53223251     1.25410
Ni98       Ni  0.23522507  0.46985518  0.46879970     1.25360
C99         C  0.21133928  0.43372048  0.55246132     0.87570
C100        C  0.28257795  0.05106022  0.44861706     0.87510
C101        C  0.18579469  0.49843622  0.49470694     0.87530
C102        C  0.31073013  0.48604473  0.50520964     0.87710
C103        C  0.03533547  0.49430630  0.49475335     0.02110
C104        C  0.50032966  0.45616818  0.50005171     0.02110
C105        C  0.46260185  0.45415872  0.48861356     0.02110
C106        C  0.46130421  0.49012010  0.49744733     0.02110
C107        C  0.49770722  0.02839065  0.50531875     0.02110
C108        C  0.03351174  0.03054481  0.49065521     0.02110
O109        O  0.21465709  0.28093402  0.51140740    -0.74600
O110        O  0.24743426  0.23507372  0.42087782    -0.74640
O111        O  0.18028355  0.21198664  0.46451100    -0.74690
O112        O  0.28070459  0.30641193  0.46325060    -0.74740
O113        O  0.30806170  0.28319514  0.51515640    -0.74670
O114        O  0.20453348  0.18738905  0.51851083    -0.74650
O115        O  0.27165597  0.21113541  0.47573067    -0.74630
O116        O  0.24202794  0.25813002  0.56387002    -0.74690
Ni117      Ni  0.22996536  0.25962970  0.46317666     1.25410
Ni118      Ni  0.25740479  0.23426954  0.52052471     1.25360
C119        C  0.22218100  0.27552837  0.55304949     0.87570
C120        C  0.26527123  0.21566663  0.43413030     0.87510
C121        C  0.17578592  0.18378743  0.49055135     0.87530
C122        C  0.31128192  0.30994570  0.48649452     0.87710
O123        O  0.39965214  0.42886151  0.96614736    -0.81070
O124        O  0.05289251  0.02635755  0.08834323    -0.65760
O125        O  0.46701867  0.49831583  0.99901666    -1.12360
C126        C  0.04304154  0.46090005  0.91513167     1.05820
O127        O  0.09542860  0.05878859  0.03687142    -0.78970
O128        O  0.07594312  0.05789642  0.94945601    -0.66550
Ni129      Ni  0.41302685  0.46663367  0.01386177     1.34870
C130        C  0.04639457  0.05640112  0.92641992     0.84560
O131        O  0.48746498  0.03370014  0.08512582    -0.79510
O132        O  0.42212517  0.00332588  0.06153173    -0.89780
C133        C  0.08823388  0.04931150  0.07758553     0.84130
O134        O  0.41946629  0.43056355  0.05402631    -0.67980
O135        O  0.07302122  0.48536571  0.94055286    -0.87270
C136        C  0.44926544  0.43238483  0.07692819     0.84960
C137        C  0.45220288  0.02813022  0.08660719     1.06530
H138        H  0.02523211  0.46529530  0.01526522     0.38330
O139        O  0.02807886  0.48995282  0.00349833    -1.09930
O140        O  0.01117618  0.02678829  0.92631236    -0.66580
Ni141      Ni  0.48644611  0.47656211  0.95716903     1.26440
O142        O  0.48432341  0.46202258  0.07644814    -0.66810
O143        O  0.00771665  0.45507826  0.91691577    -0.79100
C144        C  0.40673065  0.43811949  0.92532847     0.84340
O145        O  0.44194594  0.46179898  0.91446520    -0.66280
Ni146      Ni  0.08211192  0.02143303  0.98885948     1.27450
Ni147      Ni  0.00870981  0.01191049  0.04527363     1.26060
H148        H  0.46971136  0.02291127  0.98723407     0.38880
O149        O  0.21670929  0.28300684  0.63051735    -0.81070
O150        O  0.12429902  0.33632627  0.75142277    -0.65760
O151        O  0.15047495  0.28307838  0.66522045    -1.12360
C152        C  0.18685548  0.40143286  0.58249556     1.05820
O153        O  0.09121889  0.35042020  0.69786284    -0.78970
O154        O  0.08897727  0.33592744  0.61203395    -0.66550
Ni155      Ni  0.18468692  0.26232311  0.68237876     1.34870
C156        C  0.08835971  0.30709803  0.59231625     0.84560
O157        O  0.11626073  0.26360191  0.74874485    -0.79510
O158        O  0.15430009  0.23698024  0.73423270    -0.89780
C159        C  0.10171656  0.35019652  0.73904549     0.84130
O160        O  0.22418731  0.30784642  0.71677339    -0.67980
O161        O  0.16349220  0.40636669  0.60619296    -0.87270
C162        C  0.22058937  0.33065341  0.74344440     0.84960
C163        C  0.12716903  0.23782582  0.75543470     1.06530
H164        H  0.18468335  0.37342066  0.68273423     0.38330
O165        O  0.15937983  0.35258808  0.66963892    -1.09930
O166        O  0.11809642  0.30179066  0.59342543    -0.66580
Ni167      Ni  0.17032138  0.32632539  0.62408534     1.26350
O168        O  0.18836747  0.33146550  0.74547042    -0.66810
O169        O  0.19067449  0.37075907  0.58430869    -0.79100
C170        C  0.20619904  0.28679769  0.58987887     0.84340
O171        O  0.18178251  0.29893399  0.58088278    -0.66280
Ni172      Ni  0.12790512  0.37672944  0.65232178     1.27450
Ni173      Ni  0.13780855  0.30878484  0.71010692     1.26060
H174        H  0.12569207  0.26109427  0.65260768     0.38880
O175        O  0.24852723  0.35487287  0.81727848    -0.74600
O176        O  0.33790667  0.40093169  0.90420678    -0.74640
O177        O  0.29281795  0.42755468  0.85992614    -0.74690
O178        O  0.29526538  0.32958307  0.86232371    -0.74740
O179        O  0.33820029  0.35284328  0.80842998    -0.74670
O180        O  0.33257540  0.44764734  0.80307592    -0.74650
O181        O  0.37977649  0.42471082  0.84915232    -0.74630
O182        O  0.29008333  0.37415926  0.76202141    -0.74690
Ni183      Ni  0.29195451  0.37745777  0.86281865     1.25410
Ni184      Ni  0.33647338  0.40069754  0.80360530     1.25360
C185        C  0.25464134  0.35515434  0.77553652     0.87570
C186        C  0.37338054  0.42034679  0.89108207     0.87510
C187        C  0.31374768  0.45444150  0.83195285     0.87530
C188        C  0.31787592  0.32558607  0.83604803     0.87710
C189        C  0.28925846  0.14602449  0.82747187     0.02110
C190        C  0.32642885  0.18168225  0.83402551     0.02110
C191        C  0.36233550  0.18131536  0.83382093     0.02110
C192        C  0.36159265  0.14490778  0.83133311     0.02110
C193        C  0.32440794  0.10853318  0.82511520     0.02110
C194        C  0.28724272  0.10890004  0.81728016     0.02110
O195        O  0.04566004  0.08294168  0.85417588    -0.74600
O196        O  0.08777367  0.17001652  0.77255660    -0.74640
O197        O  0.11541448  0.12624568  0.81491394    -0.74690
O198        O  0.01741923  0.12784458  0.81199603    -0.74740
O199        O  0.04044186  0.16811253  0.87233210    -0.74670
O200        O  0.14054690  0.17088560  0.87136320    -0.74650
O201        O  0.10968105  0.21339587  0.82998345    -0.74630
O202        O  0.07287495  0.12552782  0.91240344    -0.74690
Ni203      Ni  0.06545634  0.12520684  0.81142612     1.25410
Ni204      Ni  0.09150550  0.17105921  0.87366801     1.25360
C205        C  0.05443589  0.08985085  0.89647247     0.87570
C206        C  0.10670515  0.20581093  0.78768250     0.87510
C207        C  0.14421416  0.14893552  0.84303830     0.87530
C208        C  0.01266141  0.14797237  0.84191132     0.87710
O209        O  0.09732631  0.36640176  0.81381036    -0.74600
O210        O  0.07131584  0.42212905  0.89657699    -0.74640
O211        O  0.03490217  0.34556482  0.86465776    -0.74690
O212        O  0.13285482  0.44166372  0.84472922    -0.74740
O213        O  0.10101916  0.45897494  0.79138295    -0.74670
O214        O  0.00504558  0.36032527  0.80653318    -0.74650
O215        O  0.03724708  0.43508634  0.84154965    -0.74630
O216        O  0.06850250  0.38440172  0.75755080    -0.74690
Ni217      Ni  0.08504590  0.39338067  0.85715912     1.25410
Ni218      Ni  0.05173066  0.41026097  0.79734797     1.25360
C219        C  0.08807502  0.36724829  0.77185182     0.87570
C220        C  0.05038917  0.43794208  0.88281557     0.87510
C221        C  0.00443779  0.33624141  0.83709485     0.87530
C222        C  0.13306362  0.46585465  0.81449385     0.87710
C223        C  0.41715229  0.14132029  0.87639726    -0.21480
C224        C  0.40052467  0.14565628  0.83461344    -0.09530
C225        C  0.42210427  0.15302494  0.79617678     0.29330
C226        C  0.45833724  0.15334167  0.79893971    -0.21480
C227        C  0.47473469  0.14832313  0.84042348    -0.09540
C228        C  0.45433178  0.14314774  0.87947509     0.29340
F229        F  0.46973594  0.13867833  0.92019380    -0.20060
H230        H  0.40135613  0.13667593  0.90651658     0.17700
H231        H  0.47393378  0.15802180  0.76863680     0.17710
F232        F  0.40759835  0.15893906  0.75564316    -0.20050
C233        C  0.19498845  0.13220606  0.87468853    -0.21480
C234        C  0.18257307  0.15074502  0.84152407    -0.09530
C235        C  0.20629783  0.16990853  0.80561813     0.29330
C236        C  0.24157925  0.16933670  0.80198206    -0.21480
C237        C  0.25327722  0.14907101  0.83386735    -0.09540
C238        C  0.23029412  0.13133858  0.87095229     0.29340
F239        F  0.24135875  0.11214204  0.90243032    -0.20060
H240        H  0.17677007  0.11748962  0.90261755     0.17700
H241        H  0.25873160  0.18280891  0.77301523     0.17710
F242        F  0.19485398  0.18845973  0.77365019    -0.20050
C243        C  0.21078597  0.07218357  0.79232731    -0.21480
C244        C  0.24679220  0.07140318  0.80175300    -0.09530
C245        C  0.24175613  0.03312120  0.79512428     0.29330
C246        C  0.20524972  0.99887510  0.80193636    -0.21480
C247        C  0.17109481  0.00173099  0.80588959    -0.09540
C248        C  0.17343505  0.03829401  0.79671658     0.29340
F249        F  0.14005093  0.04150892  0.79245912    -0.20060
H250        H  0.21038306  0.09803450  0.77988657     0.17700
H251        H  0.20290040  0.46992088  0.80009423     0.17710
F252        F  0.26693128  0.02818554  0.77067562    -0.20050
C253        C  0.42032698  0.23812739  0.87708098    -0.21480
C254        C  0.40080906  0.21968808  0.83563633    -0.09530
C255        C  0.41600070  0.23936790  0.79546371     0.29330
C256        C  0.44937735  0.27740129  0.79668059    -0.21480
C257        C  0.46883997  0.29624522  0.83791463    -0.09540
C258        C  0.45452677  0.27610580  0.87829826     0.29340
F259        F  0.97263436  0.29367270  0.91867966    -0.20060
H260        H  0.40863823  0.22334137  0.90831732     0.17700
H261        H  0.46027409  0.29210903  0.76514953     0.17710
F262        F  0.39766471  0.22230270  0.75497251    -0.20050
C263        C  0.33933562  0.02199795  0.79991961    -0.21480
C264        C  0.31785559  0.49453460  0.83299963    -0.09530
C265        C  0.30199222  0.50652948  0.86649803     0.29330
C266        C  0.30655271  0.04475543  0.86554769    -0.21480
C267        C  0.32549709  0.07085981  0.83030811    -0.09540
C268        C  0.34279913  0.05943078  0.79816214     0.29340
F269        F  0.35775182  0.08180626  0.76131889    -0.20060
H270        H  0.35192020  0.01388264  0.77363364     0.17700
H271        H  0.29326985  0.05320051  0.89073678     0.17710
F272        F  0.28138507  0.48127456  0.89944981    -0.20050
C273        C  0.33501573  0.24374625  0.79858916    -0.21480
C274        C  0.32762545  0.22042879  0.83717201    -0.09530
C275        C  0.31730227  0.23189848  0.87611414     0.29330
C276        C  0.31356951  0.26596922  0.87572457    -0.21480
C277        C  0.32100776  0.28929864  0.83684245    -0.09540
C278        C  0.33234606  0.27809532  0.79842969     0.29340
F279        F  0.33935339  0.29941543  0.75992468    -0.20060
H280        H  0.34134325  0.23442339  0.76781954     0.17700
H281        H  0.30513100  0.27423310  0.90576920     0.17710
F282        F  0.30964406  0.20947682  0.91377488    -0.20050
C283        C  0.06694598  0.10391803  0.46133734    -0.21480
C284        C  0.06917544  0.06971110  0.47391234    -0.09530
C285        C  0.10796438  0.07545829  0.47214226     0.29330
C286        C  0.14104365  0.11122988  0.48604327    -0.21480
C287        C  0.13816610  0.14545704  0.48477800    -0.09540
C288        C  0.10142085  0.14207710  0.46773497     0.29340
F289        F  0.09836331  0.17502164  0.45948842    -0.20060
H290        H  0.03839234  0.10169277  0.45187197     0.17700
H291        H  0.17020432  0.11359429  0.48822850     0.17710
F292        F  0.11500257  0.05742970  0.43870382    -0.20050
C293        C  0.42155985  0.37761327  0.46904228    -0.21480
C294        C  0.42460428  0.41529014  0.47073499    -0.09530
C295        C  0.38881339  0.41370174  0.45402431     0.29330
C296        C  0.35191177  0.38018767  0.46155719    -0.21480
C297        C  0.35036123  0.34530238  0.47825703    -0.09540
C298        C  0.38528235  0.34298396  0.47715336     0.29340
F299        F  0.38392197  0.30741527  0.48095831    -0.20060
H300        H  0.44675994  0.37464431  0.46197852     0.17700
H301        H  0.32478130  0.38099983  0.45230155     0.17710
F302        F  0.38947329  0.44045923  0.42359208    -0.20050
C303        C  0.37284588  0.00531147  0.46817360    -0.21480
C304        C  0.34866290  0.48610802  0.50386251    -0.09530
C305        C  0.36079644  0.46701810  0.53676352     0.29330
C306        C  0.39687119  0.46718132  0.53385439    -0.21480
C307        C  0.42170568  0.48733680  0.49864499    -0.09540
C308        C  0.40931680  0.00653197  0.46577088     0.29340
F309        F  0.43267388  0.02634350  0.43158802    -0.20060
H310        H  0.36375093  0.02006662  0.44254518     0.17700
H311        H  0.40600834  0.45249657  0.55949999     0.17710
F312        F  0.33768932  0.44810852  0.57138841    -0.20050
C313        C  0.13868230  0.01310614  0.53119852    -0.21480
C314        C  0.14831971  0.49969269  0.49315017    -0.09530
C315        C  0.12064792  0.48504043  0.45526339     0.29330
C316        C  0.08383123  0.48330522  0.45591333    -0.21480
C317        C  0.07414863  0.49617321  0.49440608    -0.09540
C318        C  0.10173485  0.01100858  0.53211956     0.29340
F319        F  0.09270661  0.02322416  0.56958799    -0.20060
H320        H  0.15926391  0.02412719  0.56084781     0.17700
H321        H  0.06278132  0.47202139  0.42664656     0.17710
F322        F  0.12894311  0.47228759  0.41767164    -0.20050
C323        C  0.03572534  0.13798671  0.53893426    -0.21480
C324        C  0.50069293  0.13980221  0.52832691    -0.09530
C325        C  0.46438376  0.10426030  0.52913281     0.29330
C326        C  0.46374776  0.06812353  0.53163631    -0.21480
C327        C  0.49829813  0.06542452  0.52617141    -0.09540
C328        C  0.03382656  0.10049328  0.54157385     0.29340
F329        F  0.06702948  0.09906116  0.55644480    -0.20060
H330        H  0.06406647  0.16508052  0.54544074     0.17700
H331        H  0.43607905  0.04372292  0.54072036     0.17710
F332        F  0.42925938  0.10424837  0.52765803    -0.20050
C333        C  0.02090972  0.37217386  0.48909370    -0.21480
C334        C  0.48896885  0.34053304  0.50892721    -0.09530
C335        C  0.46773517  0.34967808  0.53907763     0.29330
C336        C  0.47498867  0.38922727  0.54253538    -0.21480
C337        C  0.50344240  0.41942004  0.51596800    -0.09540
C338        C  0.03190525  0.41073934  0.50073676     0.29340
F339        F  0.06913331  0.42950545  0.52136625    -0.20060
H340        H  0.04272449  0.36743264  0.47375697     0.17700
H341        H  0.45504720  0.39482460  0.56069479     0.17710
F342        F  0.43845850  0.32052975  0.56244943    -0.20050
C343        C  0.18542742  0.25598235  0.20478668    -0.21480
C344        C  0.17122358  0.26746522  0.16595524    -0.09530
C345        C  0.15979171  0.24417702  0.12645903     0.29330
C346        C  0.16321021  0.21003036  0.12581840    -0.21480
C347        C  0.17715657  0.19851710  0.16482908    -0.09540
C348        C  0.18803300  0.22148935  0.20442352     0.29340
F349        F  0.20194232  0.21092409  0.24238681    -0.20060
H350        H  0.19460177  0.27393067  0.23528774     0.17700
H351        H  0.15435190  0.19220515  0.09524902     0.17710
F352        F  0.14607293  0.25491459  0.08851089    -0.20050
C353        C  0.18414406  0.44141713  0.13067070    -0.21480
C354        C  0.17177763  0.41684109  0.16839626    -0.09530
C355        C  0.16366413  0.43067770  0.20706237     0.29330
C356        C  0.16757573  0.46848783  0.20772155    -0.21480
C357        C  0.18046223  0.49349984  0.17016959    -0.09540
C358        C  0.18879157  0.47951344  0.13150357     0.29340
F359        F  0.20068350  0.00221238  0.09415803    -0.20060
H360        H  0.19070438  0.43116010  0.10068817     0.17700
H361        H  0.16099446  0.47840893  0.23793896     0.17710
F362        F  0.15308867  0.40809416  0.24458329    -0.20050
C363        C  0.07005468  0.25215709  0.13036827    -0.21480
C364        C  0.09656454  0.26653139  0.16872897    -0.09530
C365        C  0.08882562  0.24270392  0.20717596     0.29330
C366        C  0.05528267  0.20463931  0.20685383    -0.21480
C367        C  0.02855667  0.19004950  0.16847085    -0.09540
C368        C  0.03616746  0.21433085  0.13015949     0.29340
F369        F  0.51130374  0.20136480  0.09219856    -0.20060
H370        H  0.07604946  0.27004504  0.10030883     0.17700
H371        H  0.04981473  0.18688771  0.23697543     0.17710
F372        F  0.11386863  0.25630487  0.24494223    -0.20050
C373        C  0.30467031  0.46486506  0.13650696    -0.21480
C374        C  0.32140286  0.48453502  0.17806155    -0.09530
C375        C  0.30015970  0.46955708  0.21677406     0.29330
C376        C  0.26231254  0.43535343  0.21358549    -0.21480
C377        C  0.24586455  0.41561727  0.17198993    -0.09540
C378        C  0.26735560  0.43039006  0.13349867     0.29340
F379        F  0.25213788  0.41140363  0.09311406    -0.20060
H380        H  0.32071821  0.47622101  0.10634130     0.17700
H381        H  0.24596193  0.42391803  0.24351768     0.17710
F382        F  0.31536447  0.98868582  0.25706660    -0.20050
C383        C  0.07986362  0.34776087  0.12424502    -0.21480
C384        C  0.09592002  0.34137875  0.16526945    -0.09530
C385        C  0.07518049  0.33419147  0.20424362     0.29330
C386        C  0.03937841  0.33472019  0.20241966    -0.21480
C387        C  0.02318408  0.34103820  0.16142995    -0.09540
C388        C  0.04336117  0.34706514  0.12211823     0.29340
F389        F  0.02841239  0.35347826  0.08212947    -0.20060
H390        H  0.09557321  0.35303898  0.09392846     0.17700
H391        H  0.02393216  0.32963452  0.23291718     0.17710
F392        F  0.08974504  0.32692799  0.24399386    -0.20050
C393        C  0.27081375  0.35200243  0.20498234    -0.21480
C394        C  0.24487941  0.34152252  0.16613367    -0.09530
C395        C  0.25481108  0.33055378  0.12666479     0.29330
C396        C  0.29037245  0.32986391  0.12629445    -0.21480
C397        C  0.31674221  0.34087318  0.16501506    -0.09540
C398        C  0.30672223  0.35205625  0.20446643     0.29340
F399        F  0.33113830  0.36221913  0.24277394    -0.20060
H400        H  0.26308872  0.36005966  0.23571130     0.17700
H401        H  0.29764742  0.32145120  0.09548377     0.17710
F402        F  0.23029529  0.32095990  0.08848922    -0.20050
O403        O  0.40406159  0.63799927  0.30648198    -0.81070
O404        O  0.30260712  0.68523067  0.41575079    -0.65760
O405        O  0.33482950  0.63443070  0.33342144    -1.12360
C406        C  0.37190910  0.75239280  0.24894493     1.05820
O407        O  0.27240780  0.70130360  0.36031313    -0.78970
O408        O  0.27466125  0.68608244  0.27533862    -0.66550
Ni409      Ni  0.36691077  0.61161372  0.35215245     1.34870
C410        C  0.27616694  0.65881412  0.25469494     0.84560
O411        O  0.29684818  0.61228667  0.41427186    -0.79510
O412        O  0.33090381  0.58168004  0.39718890    -0.89780
C413        C  0.28076140  0.69980845  0.40184457     0.84130
O414        O  0.40235608  0.65187867  0.39531341    -0.67980
O415        O  0.34747975  0.75636167  0.27159765    -0.87270
C416        C  0.39860528  0.67594172  0.41990552     0.84960
C417        C  0.30472381  0.58395869  0.41841464     1.06530
H418        H  0.36699640  0.72428176  0.35146604     0.38330
O419        O  0.34251222  0.70344235  0.33691082    -1.09930
O420        O  0.30613758  0.65383770  0.25796601    -0.66580
Ni421      Ni  0.35656303  0.67825188  0.29282596     1.26350
O422        O  0.36851662  0.68107995  0.41565897    -0.66810
O423        O  0.37813410  0.72314440  0.25296504    -0.79100
C424        C  0.39309419  0.63720843  0.26502492     0.84340
O425        O  0.37053683  0.65090454  0.25229018    -0.66280
Ni426      Ni  0.31105283  0.72709950  0.31663816     1.27450
Ni427      Ni  0.31947812  0.65874843  0.37668411     1.26060
H428        H  0.31046416  0.61296704  0.31927401     0.38880
C429        C  0.20688381  0.84159598  0.16720166     0.02110
C430        C  0.20714726  0.87788152  0.16928541     0.02110
C431        C  0.17083684  0.87811000  0.16836455     0.02110
C432        C  0.13422743  0.84158146  0.16705480     0.02110
C433        C  0.13426010  0.80514913  0.16730067     0.02110
C434        C  0.17061459  0.80530455  0.16645441     0.02110
O435        O  0.20704946  0.61375489  0.23866629    -0.74600
O436        O  0.11583143  0.56246100  0.15373848    -0.74640
O437        O  0.16372714  0.53942041  0.19954671    -0.74690
O438        O  0.15868212  0.63507369  0.19370846    -0.74740
O439        O  0.19984631  0.65674364  0.13783003    -0.74670
O440        O  0.20297152  0.55942113  0.14216147    -0.74650
O441        O  0.15692426  0.58490169  0.09786849    -0.74630
O442        O  0.24743300  0.63281278  0.18217223    -0.74690
Ni443      Ni  0.15992086  0.58674264  0.19851817     1.25410
Ni444      Ni  0.20332835  0.60910897  0.13808933     1.25360
C445        C  0.24201546  0.63314977  0.22394434     0.87570
C446        C  0.12170333  0.56631346  0.11163043     0.87510
C447        C  0.18289331  0.53285995  0.17085623     0.87530
C448        C  0.17857846  0.66162670  0.16519041     0.87710
O449        O  0.45232097  0.90665511  0.14927798    -0.74600
O450        O  0.41253165  0.82008105  0.23189227    -0.74640
O451        O  0.48164928  0.86222015  0.19070471    -0.74690
O452        O  0.38416992  0.86385764  0.19099102    -0.74740
O453        O  0.35752989  0.81851340  0.13546037    -0.74670
O454        O  0.45746163  0.82171337  0.13053392    -0.74650
O455        O  0.38973575  0.77641035  0.17467940    -0.74630
O456        O  0.42348297  0.86349364  0.09174341    -0.74690
Ni457      Ni  0.43384729  0.86476901  0.19269042     1.25410
Ni458      Ni  0.40640071  0.81844734  0.13095371     1.25360
C459        C  0.44209204  0.89929677  0.10720076     0.87570
C460        C  0.39345761  0.78418949  0.21695246     0.87510
C461        C  0.48566126  0.84181779  0.16057575     0.87530
C462        C  0.35461409  0.84102735  0.16380803     0.87710
O463        O  0.39743958  0.62143395  0.18966433    -0.74600
O464        O  0.42688547  0.56991421  0.10446101    -0.74640
O465        O  0.36268667  0.54840992  0.15037424    -0.74690
O466        O  0.46193124  0.64396771  0.14225017    -0.74740
O467        O  0.48927357  0.62508229  0.19903408    -0.74670
O468        O  0.38897027  0.52767143  0.20659835    -0.74650
O469        O  0.45513440  0.55116983  0.16059204    -0.74630
O470        O  0.42425623  0.60112359  0.24570850    -0.74690
Ni471      Ni  0.41141375  0.59674307  0.14472528     1.25410
Ni472      Ni  0.44044775  0.57553221  0.20500142     1.25360
C473        C  0.40594984  0.61953319  0.23179410     0.87570
C474        C  0.44500074  0.55131808  0.11874270     0.87510
C475        C  0.35951737  0.52209894  0.17899808     0.87530
C476        C  0.49167817  0.65092659  0.16973174     0.87710
O477        O  0.01808360  0.76028265  0.57988235    -0.74600
O478        O  0.42586055  0.69936530  0.49595142    -0.74640
O479        O  0.47792077  0.68347298  0.54726620    -0.74690
O480        O  0.46471375  0.77401922  0.53324219    -0.74740
O481        O  0.00523887  0.79437072  0.47708444    -0.74670
O482        O  0.01824386  0.70189831  0.49092442    -0.74650
O483        O  0.46702625  0.71886456  0.44036608    -0.74630
O484        O  0.05728584  0.77775606  0.52244641    -0.74690
Ni485      Ni  0.47009980  0.72826391  0.54103680     1.25410
Ni486      Ni  0.01313036  0.74880168  0.48048670     1.25360
C487        C  0.05272280  0.78012971  0.56392054     0.87570
C488        C  0.43179241  0.69951454  0.45387439     0.87510
C489        C  0.49994814  0.67747300  0.52234408     0.87530
C490        C  0.48509871  0.80061613  0.50528435     0.87710
O491        O  0.23305280  0.96884875  0.56915363    -0.74600
O492        O  0.28606572  0.55748396  0.49107870    -0.74640
O493        O  0.21354275  0.51823542  0.52530428    -0.74690
O494        O  0.30698109  0.50735711  0.53460843    -0.74740
O495        O  0.28285517  0.96641524  0.47479680    -0.74670
O496        O  0.18949320  0.97640044  0.46644129    -0.74650
O497        O  0.26206211  0.51577149  0.43192130    -0.74630
O498        O  0.20977644  0.92687502  0.51027466    -0.74690
Ni499      Ni  0.26094206  0.51441776  0.53223254     1.25410
Ni500      Ni  0.23522502  0.96985518  0.46879969     1.25360
C501        C  0.21133925  0.93372051  0.55246132     0.87570
C502        C  0.28257797  0.55106024  0.44861710     0.87510
C503        C  0.18579469  0.99843628  0.49470693     0.87530
C504        C  0.31073008  0.98604469  0.50520961     0.87710
C505        C  0.03533546  0.99430636  0.49475335     0.02110
C506        C  0.50032966  0.95616823  0.50005184     0.02110
C507        C  0.46260185  0.95415873  0.48861355     0.02110
C508        C  0.46130415  0.99012007  0.49744730     0.02110
C509        C  0.49770731  0.52839067  0.50531880     0.02110
C510        C  0.03351181  0.53054480  0.49065533     0.02110
O511        O  0.21465718  0.78093415  0.51140741    -0.74600
O512        O  0.24743424  0.73507373  0.42087783    -0.74640
O513        O  0.18028358  0.71198671  0.46451113    -0.74690
O514        O  0.28070463  0.80641199  0.46325050    -0.74740
O515        O  0.30806181  0.78319525  0.51515626    -0.74670
O516        O  0.20453359  0.68738926  0.51851102    -0.74650
O517        O  0.27165597  0.71113546  0.47573069    -0.74630
O518        O  0.24202816  0.75813028  0.56387002    -0.74690
Ni519      Ni  0.22996539  0.75962977  0.46317667     1.25410
Ni520      Ni  0.25740491  0.73426970  0.52052473     1.25360
C521        C  0.22218114  0.77552855  0.55304950     0.87570
C522        C  0.26527121  0.71566664  0.43413031     0.87510
C523        C  0.17578599  0.68378757  0.49055157     0.87530
C524        C  0.31128200  0.80994577  0.48649434     0.87710
O525        O  0.39965216  0.92886149  0.96614736    -0.81070
O526        O  0.05289250  0.52635756  0.08834324    -0.65760
O527        O  0.46701868  0.99831582  0.99901665    -1.12360
C528        C  0.04304155  0.96090005  0.91513166     1.05820
O529        O  0.09542859  0.55878859  0.03687144    -0.78970
O530        O  0.07594311  0.55789642  0.94945602    -0.66550
Ni531      Ni  0.41302685  0.96663365  0.01386176     1.34870
C532        C  0.04639456  0.55640113  0.92641993     0.84560
O533        O  0.48746499  0.53370015  0.08512583    -0.79510
O534        O  0.42212518  0.50332589  0.06153176    -0.89780
C535        C  0.08823388  0.54931150  0.07758554     0.84130
O536        O  0.41946629  0.93056354  0.05402632    -0.67980
O537        O  0.07302123  0.98536571  0.94055285    -0.87270
C538        C  0.44926545  0.93238482  0.07692821     0.84960
C539        C  0.45220289  0.52813023  0.08660722     1.06530
H540        H  0.02523212  0.96529529  0.01526521     0.38330
O541        O  0.02807887  0.98995281  0.00349832    -1.09930
O542        O  0.01117617  0.52678830  0.92631237    -0.66580
Ni543      Ni  0.48644612  0.97656210  0.95716903     1.26440
O544        O  0.48432342  0.96202257  0.07644815    -0.66810
O545        O  0.00771666  0.95507826  0.91691576    -0.79100
C546        C  0.40673066  0.93811947  0.92532847     0.84340
O547        O  0.44194595  0.96179897  0.91446520    -0.66280
Ni548      Ni  0.08211191  0.52143304  0.98885949     1.27450
Ni549      Ni  0.00870980  0.51191050  0.04527364     1.26060
H550        H  0.46971136  0.52291128  0.98723408     0.38880
O551        O  0.21670937  0.78300695  0.63051735    -0.81070
O552        O  0.12429902  0.83632627  0.75142277    -0.65760
O553        O  0.15047498  0.78307841  0.66522044    -1.12360
C554        C  0.18685547  0.90143290  0.58249558     1.05820
O555        O  0.09121888  0.85042017  0.69786285    -0.78970
O556        O  0.08897727  0.83592745  0.61203395    -0.66550
Ni557      Ni  0.18468695  0.76232314  0.68237873     1.34870
C558        C  0.08835973  0.80709805  0.59231624     0.84560
O559        O  0.11626076  0.76360191  0.74874484    -0.79510
O560        O  0.15430009  0.73698022  0.73423263    -0.89780
C561        C  0.10171656  0.85019650  0.73904550     0.84130
O562        O  0.22418732  0.80784642  0.71677342    -0.67980
O563        O  0.16349218  0.90636672  0.60619298    -0.87270
C564        C  0.22058938  0.83065342  0.74344441     0.84960
C565        C  0.12716904  0.73782581  0.75543467     1.06530
H566        H  0.18468334  0.87342068  0.68273424     0.38330
O567        O  0.15937983  0.85258809  0.66963892    -1.09930
O568        O  0.11809644  0.80179069  0.59342543    -0.66580
Ni569      Ni  0.17032139  0.82632543  0.62408534     1.26350
O570        O  0.18836749  0.83146552  0.74547041    -0.66810
O571        O  0.19067450  0.87075911  0.58430870    -0.79100
C572        C  0.20619913  0.78679782  0.58987887     0.84340
O573        O  0.18178256  0.79893406  0.58088278    -0.66280
Ni574      Ni  0.12790511  0.87672944  0.65232180     1.27450
Ni575      Ni  0.13780856  0.80878485  0.71010692     1.26060
H576        H  0.12569210  0.76109430  0.65260767     0.38880
O577        O  0.24852724  0.85487288  0.81727849    -0.74600
O578        O  0.33790668  0.90093169  0.90420679    -0.74640
O579        O  0.29281796  0.92755468  0.85992615    -0.74690
O580        O  0.29526539  0.82958307  0.86232371    -0.74740
O581        O  0.33820030  0.85284328  0.80842998    -0.74670
O582        O  0.33257541  0.94764734  0.80307592    -0.74650
O583        O  0.37977650  0.92471081  0.84915232    -0.74630
O584        O  0.29008334  0.87415927  0.76202142    -0.74690
Ni585      Ni  0.29195452  0.87745777  0.86281866     1.25410
Ni586      Ni  0.33647339  0.90069754  0.80360530     1.25360
C587        C  0.25464135  0.85515435  0.77553653     0.87570
C588        C  0.37338055  0.92034679  0.89108208     0.87510
C589        C  0.31374769  0.95444151  0.83195286     0.87530
C590        C  0.31787592  0.82558607  0.83604803     0.87710
C591        C  0.28925847  0.64602448  0.82747187     0.02110
C592        C  0.32642885  0.68168225  0.83402552     0.02110
C593        C  0.36233550  0.68131536  0.83382094     0.02110
C594        C  0.36159266  0.64490778  0.83133312     0.02110
C595        C  0.32440794  0.60853318  0.82511521     0.02110
C596        C  0.28724273  0.60890004  0.81728016     0.02110
O597        O  0.04566003  0.58294167  0.85417588    -0.74600
O598        O  0.08777368  0.67001651  0.77255658    -0.74640
O599        O  0.11541447  0.62624566  0.81491393    -0.74690
O600        O  0.01741924  0.62784458  0.81199602    -0.74740
O601        O  0.04044187  0.66811254  0.87233208    -0.74670
O602        O  0.14054690  0.67088559  0.87136318    -0.74650
O603        O  0.10968106  0.71339587  0.82998342    -0.74630
O604        O  0.07287495  0.62552782  0.91240343    -0.74690
Ni605      Ni  0.06545634  0.62520683  0.81142611     1.25410
Ni606      Ni  0.09150551  0.67105921  0.87366799     1.25360
C607        C  0.05443589  0.58985085  0.89647247     0.87570
C608        C  0.10670516  0.70581092  0.78768247     0.87510
C609        C  0.14421416  0.64893550  0.84303829     0.87530
C610        C  0.01266142  0.64797238  0.84191130     0.87710
O611        O  0.09732631  0.86640175  0.81381036    -0.74600
O612        O  0.07131585  0.92212905  0.89657698    -0.74640
O613        O  0.03490218  0.84556482  0.86465776    -0.74690
O614        O  0.13285483  0.94166371  0.84472920    -0.74740
O615        O  0.10101916  0.95897493  0.79138294    -0.74670
O616        O  0.00504558  0.86032527  0.80653318    -0.74650
O617        O  0.03724709  0.93508633  0.84154964    -0.74630
O618        O  0.06850249  0.88440171  0.75755080    -0.74690
Ni619      Ni  0.08504590  0.89338067  0.85715911     1.25410
Ni620      Ni  0.05173066  0.91026096  0.79734797     1.25360
C621        C  0.08807501  0.86724828  0.77185182     0.87570
C622        C  0.05038918  0.93794208  0.88281556     0.87510
C623        C  0.00443780  0.83624141  0.83709485     0.87530
C624        C  0.13306362  0.96585464  0.81449383     0.87710
C625        C  0.41715230  0.64132030  0.87639725    -0.21480
C626        C  0.40052468  0.64565628  0.83461344    -0.09530
C627        C  0.42210427  0.65302494  0.79617677     0.29330
C628        C  0.45833724  0.65334167  0.79893970    -0.21480
C629        C  0.47473470  0.64832314  0.84042346    -0.09540
C630        C  0.45433180  0.64314775  0.87947508     0.29340
F631        F  0.46973596  0.63867835  0.92019379    -0.20060
H632        H  0.40135615  0.63667594  0.90651658     0.17700
H633        H  0.47393378  0.65802180  0.76863679     0.17710
F634        F  0.40759835  0.65893905  0.75564316    -0.20050
C635        C  0.19498844  0.63220604  0.87468851    -0.21480
C636        C  0.18257307  0.65074499  0.84152406    -0.09530
C637        C  0.20629783  0.66990852  0.80561813     0.29330
C638        C  0.24157925  0.66933669  0.80198206    -0.21480
C639        C  0.25327722  0.64907100  0.83386735    -0.09540
C640        C  0.23029411  0.63133856  0.87095229     0.29340
F641        F  0.24135874  0.61214202  0.90243031    -0.20060
H642        H  0.17677005  0.61748959  0.90261754     0.17700
H643        H  0.25873161  0.68280890  0.77301524     0.17710
F644        F  0.19485398  0.68845972  0.77365018    -0.20050
C645        C  0.21078598  0.57218357  0.79232729    -0.21480
C646        C  0.24679220  0.57140317  0.80175300    -0.09530
C647        C  0.24175613  0.53312119  0.79512431     0.29330
C648        C  0.20524972  0.49887510  0.80193639    -0.21480
C649        C  0.17109481  0.50173099  0.80588960    -0.09540
C650        C  0.17343505  0.53829401  0.79671656     0.29340
F651        F  0.14005094  0.54150893  0.79245908    -0.20060
H652        H  0.21038308  0.59803450  0.77988654     0.17700
H653        H  0.20290040  0.96992089  0.80009417     0.17710
F654        F  0.26693128  0.52818551  0.77067566    -0.20050
C655        C  0.42032698  0.73812739  0.87708100    -0.21480
C656        C  0.40080906  0.71968808  0.83563635    -0.09530
C657        C  0.41600071  0.73936790  0.79546373     0.29330
C658        C  0.44937736  0.77740128  0.79668061    -0.21480
C659        C  0.46883997  0.79624521  0.83791465    -0.09540
C660        C  0.45452677  0.77610580  0.87829828     0.29340
F661        F  0.97263436  0.79367271  0.91867967    -0.20060
H662        H  0.40863822  0.72334136  0.90831734     0.17700
H663        H  0.46027410  0.79210903  0.76514955     0.17710
F664        F  0.39766472  0.72230271  0.75497253    -0.20050
C665        C  0.33933562  0.52199795  0.79991961    -0.21480
C666        C  0.31785559  0.99453460  0.83299963    -0.09530
C667        C  0.30199221  0.00652948  0.86649803     0.29330
C668        C  0.30655273  0.54475543  0.86554770    -0.21480
C669        C  0.32549710  0.57085982  0.83030812    -0.09540
C670        C  0.34279914  0.55943078  0.79816214     0.29340
F671        F  0.35775182  0.58180626  0.76131890    -0.20060
H672        H  0.35192020  0.51388263  0.77363364     0.17700
H673        H  0.29326987  0.55320051  0.89073679     0.17710
F674        F  0.28138506  0.98127456  0.89944981    -0.20050
C675        C  0.33501573  0.74374624  0.79858916    -0.21480
C676        C  0.32762545  0.72042878  0.83717202    -0.09530
C677        C  0.31730226  0.73189847  0.87611414     0.29330
C678        C  0.31356950  0.76596922  0.87572457    -0.21480
C679        C  0.32100776  0.78929863  0.83684245    -0.09540
C680        C  0.33234606  0.77809532  0.79842970     0.29340
F681        F  0.33935339  0.79941543  0.75992469    -0.20060
H682        H  0.34134326  0.73442339  0.76781955     0.17700
H683        H  0.30513099  0.77423309  0.90576919     0.17710
F684        F  0.30964405  0.70947681  0.91377488    -0.20050
C685        C  0.06694614  0.60391797  0.46133731    -0.21480
C686        C  0.06917561  0.56971111  0.47391267    -0.09530
C687        C  0.10796464  0.57545839  0.47214321     0.29330
C688        C  0.14104373  0.61123001  0.48604441    -0.21480
C689        C  0.13816617  0.64545716  0.48477839    -0.09540
C690        C  0.10142096  0.64207709  0.46773489     0.29340
F691        F  0.09836340  0.67502156  0.45948785    -0.20060
H692        H  0.03839251  0.60169262  0.45187165     0.17700
H693        H  0.17020442  0.61359444  0.48823014     0.17710
F694        F  0.11500326  0.55743012  0.43870480    -0.20050
C695        C  0.42155995  0.87761332  0.46904208    -0.21480
C696        C  0.42460435  0.91529018  0.47073483    -0.09530
C697        C  0.38881348  0.91370178  0.45402407     0.29330
C698        C  0.35191185  0.88018771  0.46155690    -0.21480
C699        C  0.35036130  0.84530242  0.47825675    -0.09540
C700        C  0.38528243  0.84298400  0.47715310     0.29340
F701        F  0.38392205  0.80741531  0.48095807    -0.20060
H702        H  0.44676011  0.87464441  0.46197847     0.17700
H703        H  0.32478139  0.88099988  0.45230124     0.17710
F704        F  0.38947343  0.94045932  0.42359187    -0.20050
C705        C  0.37284594  0.50531151  0.46817363    -0.21480
C706        C  0.34866283  0.98610796  0.50386247    -0.09530
C707        C  0.36079635  0.96701800  0.53676345     0.29330
C708        C  0.39687110  0.96718122  0.53385431    -0.21480
C709        C  0.42170560  0.98733673  0.49864494    -0.09540
C710        C  0.40931686  0.50653200  0.46577090     0.29340
F711        F  0.43267392  0.52634350  0.43158802    -0.20060
H712        H  0.36375097  0.52006663  0.44254518     0.17700
H713        H  0.40600823  0.95249644  0.55949989     0.17710
F714        F  0.33768921  0.94810839  0.57138832    -0.20050
C715        C  0.13868213  0.51310571  0.53119870    -0.21480
C716        C  0.14831973  0.99969279  0.49315013    -0.09530
C717        C  0.12064781  0.98504026  0.45526349     0.29330
C718        C  0.08383111  0.98330503  0.45591345    -0.21480
C719        C  0.07414865  0.99617332  0.49440607    -0.09540
C720        C  0.10173467  0.51100814  0.53211973     0.29340
F721        F  0.09270631  0.52322343  0.56958827    -0.20060
H722        H  0.15926364  0.52412653  0.56084810     0.17700
H723        H  0.06278110  0.97202096  0.42664680     0.17710
F724        F  0.12894285  0.97228713  0.41767186    -0.20050
C725        C  0.03572536  0.63798678  0.53893406    -0.21480
C726        C  0.50069297  0.63980230  0.52832669    -0.09530
C727        C  0.46438381  0.60426037  0.52913267     0.29330
C728        C  0.46374785  0.56812361  0.53163624    -0.21480
C729        C  0.49829822  0.56542460  0.52617132    -0.09540
C730        C  0.03382660  0.60049336  0.54157371     0.29340
F731        F  0.06702949  0.59906125  0.55644481    -0.20060
H732        H  0.06406649  0.66508060  0.54544055     0.17700
H733        H  0.43607917  0.54372301  0.54072038     0.17710
F734        F  0.42925943  0.60424842  0.52765796    -0.20050
C735        C  0.02091013  0.87217407  0.48909451    -0.21480
C736        C  0.48896901  0.84053319  0.50892761    -0.09530
C737        C  0.46773497  0.84967807  0.53907766     0.29330
C738        C  0.47498841  0.88922725  0.54253545    -0.21480
C739        C  0.50344239  0.91942013  0.51596840    -0.09540
C740        C  0.03190546  0.91073951  0.50073753     0.29340
F741        F  0.06913345  0.92950585  0.52136719    -0.20060
H742        H  0.04272511  0.86743292  0.47375819     0.17700
H743        H  0.45504670  0.89482447  0.56069454     0.17710
F744        F  0.43845801  0.82052961  0.56244903    -0.20050
C745        C  0.18542739  0.75598234  0.20478667    -0.21480
C746        C  0.17122358  0.76746521  0.16595522    -0.09530
C747        C  0.15979172  0.74417703  0.12645900     0.29330
C748        C  0.16321023  0.71003037  0.12581839    -0.21480
C749        C  0.17715656  0.69851709  0.16482908    -0.09540
C750        C  0.18803296  0.72148934  0.20442353     0.29340
F751        F  0.20194225  0.71092406  0.24238683    -0.20060
H752        H  0.19460171  0.77393066  0.23528774     0.17700
H753        H  0.15435195  0.69220517  0.09524900     0.17710
F754        F  0.14607297  0.75491461  0.08851085    -0.20050
C755        C  0.18414407  0.94141714  0.13067067    -0.21480
C756        C  0.17177763  0.91684109  0.16839623    -0.09530
C757        C  0.16366413  0.93067770  0.20706234     0.29330
C758        C  0.16757574  0.96848783  0.20772152    -0.21480
C759        C  0.18046224  0.99349985  0.17016957    -0.09540
C760        C  0.18879158  0.97951345  0.13150354     0.29340
F761        F  0.20068348  0.50221237  0.09415805    -0.20060
H762        H  0.19070439  0.93116011  0.10068814     0.17700
H763        H  0.16099446  0.97840892  0.23793893     0.17710
F764        F  0.15308866  0.90809416  0.24458325    -0.20050
C765        C  0.07005469  0.75215708  0.13036825    -0.21480
C766        C  0.09656454  0.76653139  0.16872895    -0.09530
C767        C  0.08882561  0.74270394  0.20717595     0.29330
C768        C  0.05528265  0.70463933  0.20685384    -0.21480
C769        C  0.02855666  0.69004951  0.16847085    -0.09540
C770        C  0.03616746  0.71433084  0.13015947     0.29340
F771        F  0.51130359  0.70136499  0.09219880    -0.20060
H772        H  0.07604947  0.77004501  0.10030879     0.17700
H773        H  0.04981471  0.68688775  0.23697545     0.17710
F774        F  0.11386861  0.75630490  0.24494223    -0.20050
C775        C  0.30467032  0.96486505  0.13650694    -0.21480
C776        C  0.32140287  0.98453502  0.17806153    -0.09530
C777        C  0.30015969  0.96955709  0.21677403     0.29330
C778        C  0.26231254  0.93535344  0.21358546    -0.21480
C779        C  0.24586455  0.91561727  0.17198990    -0.09540
C780        C  0.26735562  0.93039006  0.13349865     0.29340
F781        F  0.25213789  0.91140362  0.09311403    -0.20060
H782        H  0.32071823  0.97622100  0.10634128     0.17700
H783        H  0.24596192  0.92391804  0.24351764     0.17710
F784        F  0.31536448  0.48868580  0.25706663    -0.20050
C785        C  0.07986360  0.84776085  0.12424499    -0.21480
C786        C  0.09592001  0.84137874  0.16526942    -0.09530
C787        C  0.07518049  0.83419147  0.20424359     0.29330
C788        C  0.03937840  0.83472018  0.20241964    -0.21480
C789        C  0.02318406  0.84103817  0.16142993    -0.09540
C790        C  0.04336114  0.84706510  0.12211820     0.29340
F791        F  0.02841235  0.85347821  0.08212944    -0.20060
H792        H  0.09557319  0.85303896  0.09392843     0.17700
H793        H  0.02393216  0.82963451  0.23291716     0.17710
F794        F  0.08974505  0.82692801  0.24399384    -0.20050
C795        C  0.27081373  0.85200241  0.20498232    -0.21480
C796        C  0.24487940  0.84152251  0.16613364    -0.09530
C797        C  0.25481108  0.83055378  0.12666477     0.29330
C798        C  0.29037246  0.82986391  0.12629443    -0.21480
C799        C  0.31674220  0.84087317  0.16501505    -0.09540
C800        C  0.30672221  0.85205622  0.20446643     0.29340
F801        F  0.33113826  0.86221909  0.24277395    -0.20060
H802        H  0.26308869  0.86005963  0.23571128     0.17700
H803        H  0.29764744  0.82145121  0.09548376     0.17710
F804        F  0.23029531  0.82095992  0.08848919    -0.20050
O805        O  0.90406158  0.13799923  0.30648196    -0.81070
O806        O  0.80260715  0.18523066  0.41575077    -0.65760
O807        O  0.83482949  0.13443067  0.33342141    -1.12360
C808        C  0.87190912  0.25239279  0.24894492     1.05820
O809        O  0.77240782  0.20130358  0.36031311    -0.78970
O810        O  0.77466127  0.18608244  0.27533859    -0.66550
Ni811      Ni  0.86691073  0.11161366  0.35215241     1.34870
C812        C  0.77616695  0.15881412  0.25469492     0.84560
O813        O  0.79684820  0.11228666  0.41427185    -0.79510
O814        O  0.83090376  0.08167997  0.39718883    -0.89780
C815        C  0.78076143  0.19980844  0.40184455     0.84130
O816        O  0.90235604  0.15187855  0.39531341    -0.67980
O817        O  0.84747977  0.25636166  0.27159765    -0.87270
C818        C  0.89860527  0.17594162  0.41990552     0.84960
C819        C  0.80472379  0.08395866  0.41841461     1.06530
H820        H  0.86699642  0.22428174  0.35146602     0.38330
O821        O  0.84251224  0.20344233  0.33691080    -1.09930
O822        O  0.80613759  0.15383769  0.25796598    -0.66580
Ni823      Ni  0.85656303  0.17825185  0.29282594     1.26350
O824        O  0.86851664  0.18107991  0.41565894    -0.66810
O825        O  0.87813411  0.22314438  0.25296502    -0.79100
C826        C  0.89309419  0.13720840  0.26502490     0.84340
O827        O  0.87053684  0.15090452  0.25229016    -0.66280
Ni828      Ni  0.81105285  0.22709949  0.31663815     1.27450
Ni829      Ni  0.81947813  0.15874842  0.37668409     1.26060
H830        H  0.81046415  0.11296702  0.31927398     0.38880
C831        C  0.70688380  0.34159596  0.16720150     0.02110
C832        C  0.70714725  0.37788150  0.16928526     0.02110
C833        C  0.67083683  0.37810998  0.16836438     0.02110
C834        C  0.63422742  0.34158145  0.16705459     0.02110
C835        C  0.63426009  0.30514912  0.16730044     0.02110
C836        C  0.67061458  0.30530454  0.16645421     0.02110
O837        O  0.70704947  0.11375489  0.23866627    -0.74600
O838        O  0.61583143  0.06246099  0.15373847    -0.74640
O839        O  0.66372715  0.03942041  0.19954669    -0.74690
O840        O  0.65868213  0.13507369  0.19370844    -0.74740
O841        O  0.69984631  0.15674363  0.13783000    -0.74670
O842        O  0.70297153  0.05942113  0.14216145    -0.74650
O843        O  0.65692426  0.08490168  0.09786848    -0.74630
O844        O  0.74743300  0.13281278  0.18217220    -0.74690
Ni845      Ni  0.65992087  0.08674264  0.19851816     1.25410
Ni846      Ni  0.70332835  0.10910896  0.13808931     1.25360
C847        C  0.74201547  0.13314977  0.22394431     0.87570
C848        C  0.62170333  0.06631345  0.11163042     0.87510
C849        C  0.68289332  0.03285995  0.17085621     0.87530
C850        C  0.67857846  0.16162669  0.16519038     0.87710
O851        O  0.95232095  0.40665511  0.14927800    -0.74600
O852        O  0.91253164  0.32008104  0.23189227    -0.74640
O853        O  0.98164929  0.36222017  0.19070474    -0.74690
O854        O  0.88416990  0.36385761  0.19099103    -0.74740
O855        O  0.85752990  0.31851339  0.13546036    -0.74670
O856        O  0.95746166  0.32171339  0.13053394    -0.74650
O857        O  0.88973577  0.27641035  0.17467940    -0.74630
O858        O  0.92348299  0.36349365  0.09174342    -0.74690
Ni859      Ni  0.93384728  0.36476901  0.19269044     1.25410
Ni860      Ni  0.90640073  0.31844735  0.13095372     1.25360
C861        C  0.94209204  0.39929678  0.10720079     0.87570
C862        C  0.89345763  0.28418948  0.21695246     0.87510
C863        C  0.98566128  0.34181781  0.16057579     0.87530
C864        C  0.85461408  0.34102732  0.16380801     0.87710
O865        O  0.89743958  0.12143393  0.18966432    -0.74600
O866        O  0.92688548  0.06991421  0.10446100    -0.74640
O867        O  0.86268668  0.04840991  0.15037422    -0.74690
O868        O  0.96193126  0.14396770  0.14225017    -0.74740
O869        O  0.98927358  0.12508227  0.19903409    -0.74670
O870        O  0.88897027  0.02767141  0.20659833    -0.74650
O871        O  0.95513441  0.05116981  0.16059203    -0.74630
O872        O  0.92425622  0.10112357  0.24570849    -0.74690
Ni873      Ni  0.91141376  0.09674306  0.14472527     1.25410
Ni874      Ni  0.94044775  0.07553220  0.20500142     1.25360
C875        C  0.90594984  0.11953317  0.23179408     0.87570
C876        C  0.94500075  0.05131807  0.11874270     0.87510
C877        C  0.85951737  0.02209893  0.17899805     0.87530
C878        C  0.99167818  0.15092658  0.16973176     0.87710
O879        O  0.51808357  0.26028264  0.57988235    -0.74600
O880        O  0.92586053  0.19936522  0.49595142    -0.74640
O881        O  0.97792074  0.18347292  0.54726631    -0.74690
O882        O  0.96471373  0.27401915  0.53324208    -0.74740
O883        O  0.50523885  0.29437060  0.47708436    -0.74670
O884        O  0.51824386  0.20189822  0.49092455    -0.74650
O885        O  0.96702624  0.21886436  0.44036610    -0.74630
O886        O  0.55728582  0.27775600  0.52244643    -0.74690
Ni887      Ni  0.97009977  0.22826386  0.54103680     1.25410
Ni888      Ni  0.51313035  0.24880158  0.48048673     1.25360
C889        C  0.55272278  0.28012969  0.56392055     0.87570
C890        C  0.93179239  0.19951441  0.45387440     0.87510
C891        C  0.99994812  0.17747292  0.52234424     0.87530
C892        C  0.98509864  0.30061600  0.50528415     0.87710
O893        O  0.73305282  0.46884870  0.56915364    -0.74600
O894        O  0.78606572  0.05748396  0.49107868    -0.74640
O895        O  0.71354277  0.01823550  0.52530428    -0.74690
O896        O  0.80698106  0.00735710  0.53460844    -0.74740
O897        O  0.78285523  0.46641526  0.47479682    -0.74670
O898        O  0.68949321  0.47640039  0.46644130    -0.74650
O899        O  0.76206207  0.01577147  0.43192130    -0.74630
O900        O  0.70977648  0.42687499  0.51027465    -0.74690
Ni901      Ni  0.76094206  0.01441780  0.53223255     1.25410
Ni902      Ni  0.73522506  0.46985517  0.46879970     1.25360
C903        C  0.71133929  0.43372047  0.55246132     0.87570
C904        C  0.78257796  0.05106022  0.44861709     0.87510
C905        C  0.68579468  0.49843620  0.49470695     0.87530
C906        C  0.81073013  0.48604471  0.50520963     0.87710
C907        C  0.53533547  0.49430631  0.49475336     0.02110
C908        C  0.00032965  0.45616817  0.50005170     0.02110
C909        C  0.96260184  0.45415870  0.48861357     0.02110
C910        C  0.96130421  0.49012008  0.49744733     0.02110
C911        C  0.99770725  0.02839065  0.50531879     0.02110
C912        C  0.53351170  0.03054481  0.49065514     0.02110
O913        O  0.71465707  0.28093398  0.51140740    -0.74600
O914        O  0.74743425  0.23507370  0.42087781    -0.74640
O915        O  0.68028352  0.21198661  0.46451095    -0.74690
O916        O  0.78070458  0.30641189  0.46325063    -0.74740
O917        O  0.80806165  0.28319508  0.51515644    -0.74670
O918        O  0.70453343  0.18738897  0.51851075    -0.74650
O919        O  0.77165595  0.21113538  0.47573066    -0.74630
O920        O  0.74202786  0.25812992  0.56387001    -0.74690
Ni921      Ni  0.72996534  0.25962967  0.46317666     1.25410
Ni922      Ni  0.75740474  0.23426947  0.52052470     1.25360
C923        C  0.72218095  0.27552831  0.55304949     0.87570
C924        C  0.76527122  0.21566661  0.43413029     0.87510
C925        C  0.67578588  0.18378737  0.49055125     0.87530
C926        C  0.81128189  0.30994566  0.48649456     0.87710
O927        O  0.89965214  0.42886150  0.96614739    -0.81070
O928        O  0.55289250  0.02635755  0.08834323    -0.65760
O929        O  0.96701867  0.49831583  0.99901668    -1.12360
C930        C  0.54304154  0.46090005  0.91513165     1.05820
O931        O  0.59542859  0.05878859  0.03687143    -0.78970
O932        O  0.57594312  0.05789641  0.94945601    -0.66550
Ni933      Ni  0.91302685  0.46663366  0.01386180     1.34870
C934        C  0.54639457  0.05640112  0.92641992     0.84560
O935        O  0.98746500  0.03370014  0.08512584    -0.79510
O936        O  0.92212519  0.00332588  0.06153176    -0.89780
C937        C  0.58823387  0.04931150  0.07758553     0.84130
O938        O  0.91946629  0.43056355  0.05402634    -0.67980
O939        O  0.57302122  0.48536571  0.94055284    -0.87270
C940        C  0.94926545  0.43238483  0.07692823     0.84960
C941        C  0.95220290  0.02813022  0.08660722     1.06530
H942        H  0.52523211  0.46529530  0.01526520     0.38330
O943        O  0.52807886  0.48995282  0.00349831    -1.09930
O944        O  0.51117618  0.02678829  0.92631235    -0.66580
Ni945      Ni  0.98644611  0.47656211  0.95716905     1.26440
O946        O  0.98432342  0.46202258  0.07644817    -0.66810
O947        O  0.50771665  0.45507826  0.91691575    -0.79100
C948        C  0.90673064  0.43811948  0.92532849     0.84340
O949        O  0.94194593  0.46179898  0.91446523    -0.66280
Ni950      Ni  0.58211192  0.02143303  0.98885948     1.27450
Ni951      Ni  0.50870980  0.01191049  0.04527362     1.26060
H952        H  0.96971137  0.02291127  0.98723409     0.38880
O953        O  0.71670928  0.28300681  0.63051734    -0.81070
O954        O  0.62429902  0.33632627  0.75142276    -0.65760
O955        O  0.65047494  0.28307836  0.66522046    -1.12360
C956        C  0.68685548  0.40143285  0.58249556     1.05820
O957        O  0.59121889  0.35042019  0.69786284    -0.78970
O958        O  0.58897727  0.33592744  0.61203394    -0.66550
Ni959      Ni  0.68468692  0.26232310  0.68237877     1.34870
C960        C  0.58835971  0.30709803  0.59231625     0.84560
O961        O  0.61626072  0.26360190  0.74874484    -0.79510
O962        O  0.65430010  0.23698025  0.73423272    -0.89780
C963        C  0.60171657  0.35019651  0.73904549     0.84130
O964        O  0.72418731  0.30784642  0.71677338    -0.67980
O965        O  0.66349221  0.40636669  0.60619297    -0.87270
C966        C  0.72058938  0.33065340  0.74344440     0.84960
C967        C  0.62716903  0.23782582  0.75543471     1.06530
H968        H  0.68468335  0.37342065  0.68273423     0.38330
O969        O  0.65937983  0.35258806  0.66963892    -1.09930
O970        O  0.61809641  0.30179064  0.59342544    -0.66580
Ni971      Ni  0.67032137  0.32632537  0.62408534     1.26350
O972        O  0.68836747  0.33146548  0.74547043    -0.66810
O973        O  0.69067449  0.37075905  0.58430868    -0.79100
C974        C  0.70619901  0.28679765  0.58987886     0.84340
O975        O  0.68178249  0.29893396  0.58088278    -0.66280
Ni976      Ni  0.62790513  0.37672943  0.65232179     1.27450
Ni977      Ni  0.63780855  0.30878483  0.71010692     1.26060
H978        H  0.62569207  0.26109426  0.65260769     0.38880
O979        O  0.74852723  0.35487286  0.81727848    -0.74600
O980        O  0.83790666  0.40093168  0.90420680    -0.74640
O981        O  0.79281794  0.42755467  0.85992615    -0.74690
O982        O  0.79526538  0.32958306  0.86232372    -0.74740
O983        O  0.83820030  0.35284327  0.80843000    -0.74670
O984        O  0.83257539  0.44764733  0.80307593    -0.74650
O985        O  0.87977649  0.42471081  0.84915234    -0.74630
O986        O  0.79008333  0.37415926  0.76202142    -0.74690
Ni987      Ni  0.79195450  0.37745776  0.86281866     1.25410
Ni988      Ni  0.83647338  0.40069753  0.80360531     1.25360
C989        C  0.75464134  0.35515434  0.77553653     0.87570
C990        C  0.87338053  0.42034679  0.89108210     0.87510
C991        C  0.81374767  0.45444150  0.83195286     0.87530
C992        C  0.81787592  0.32558606  0.83604805     0.87710
C993        C  0.78925846  0.14602448  0.82747186     0.02110
C994        C  0.82642884  0.18168225  0.83402551     0.02110
C995        C  0.86233550  0.18131536  0.83382093     0.02110
C996        C  0.86159265  0.14490778  0.83133311     0.02110
C997        C  0.82440794  0.10853318  0.82511520     0.02110
C998        C  0.78724272  0.10890004  0.81728016     0.02110
O999        O  0.54566004  0.08294167  0.85417588    -0.74600
O1000       O  0.58777367  0.17001652  0.77255661    -0.74640
O1001       O  0.61541448  0.12624568  0.81491394    -0.74690
O1002       O  0.51741923  0.12784458  0.81199603    -0.74740
O1003       O  0.54044186  0.16811253  0.87233210    -0.74670
O1004       O  0.64054689  0.17088559  0.87136320    -0.74650
O1005       O  0.60968105  0.21339587  0.82998346    -0.74630
O1006       O  0.57287494  0.12552781  0.91240344    -0.74690
Ni1007     Ni  0.56545634  0.12520684  0.81142612     1.25410
Ni1008     Ni  0.59150550  0.17105921  0.87366801     1.25360
C1009       C  0.55443589  0.08985084  0.89647247     0.87570
C1010       C  0.60670515  0.20581093  0.78768251     0.87510
C1011       C  0.64421416  0.14893551  0.84303830     0.87530
C1012       C  0.51266141  0.14797237  0.84191132     0.87710
O1013       O  0.59732631  0.36640176  0.81381035    -0.74600
O1014       O  0.57131585  0.42212905  0.89657697    -0.74640
O1015       O  0.53490218  0.34556482  0.86465775    -0.74690
O1016       O  0.63285483  0.44166372  0.84472920    -0.74740
O1017       O  0.60101916  0.45897494  0.79138294    -0.74670
O1018       O  0.50504558  0.36032527  0.80653317    -0.74650
O1019       O  0.53724709  0.43508634  0.84154963    -0.74630
O1020       O  0.56850250  0.38440171  0.75755079    -0.74690
Ni1021     Ni  0.58504590  0.39338067  0.85715910     1.25410
Ni1022     Ni  0.55173066  0.41026097  0.79734796     1.25360
C1023       C  0.58807502  0.36724828  0.77185182     0.87570
C1024       C  0.55038917  0.43794208  0.88281555     0.87510
C1025       C  0.50443780  0.33624141  0.83709484     0.87530
C1026       C  0.63306362  0.46585465  0.81449383     0.87710
C1027       C  0.91715229  0.14132029  0.87639726    -0.21480
C1028       C  0.90052467  0.14565628  0.83461344    -0.09530
C1029       C  0.92210427  0.15302494  0.79617677     0.29330
C1030       C  0.95833724  0.15334167  0.79893970    -0.21480
C1031       C  0.97473469  0.14832313  0.84042347    -0.09540
C1032       C  0.95433178  0.14314774  0.87947509     0.29340
F1033       F  0.96973594  0.13867833  0.92019380    -0.20060
H1034       H  0.90135613  0.13667593  0.90651658     0.17700
H1035       H  0.97393378  0.15802180  0.76863680     0.17710
F1036       F  0.90759835  0.15893906  0.75564316    -0.20050
C1037       C  0.69498845  0.13220606  0.87468852    -0.21480
C1038       C  0.68257307  0.15074501  0.84152407    -0.09530
C1039       C  0.70629783  0.16990853  0.80561813     0.29330
C1040       C  0.74157925  0.16933669  0.80198206    -0.21480
C1041       C  0.75327722  0.14907101  0.83386735    -0.09540
C1042       C  0.73029412  0.13133858  0.87095229     0.29340
F1043       F  0.74135875  0.11214204  0.90243031    -0.20060
H1044       H  0.67677007  0.11748961  0.90261755     0.17700
H1045       H  0.75873160  0.18280890  0.77301523     0.17710
F1046       F  0.69485397  0.18845973  0.77365018    -0.20050
C1047       C  0.71078597  0.07218356  0.79232731    -0.21480
C1048       C  0.74679220  0.07140318  0.80175300    -0.09530
C1049       C  0.74175613  0.03312120  0.79512429     0.29330
C1050       C  0.70524972  0.99887510  0.80193636    -0.21480
C1051       C  0.67109482  0.00173098  0.80588959    -0.09540
C1052       C  0.67343505  0.03829400  0.79671658     0.29340
F1053       F  0.64005093  0.04150891  0.79245912    -0.20060
H1054       H  0.71038306  0.09803449  0.77988657     0.17700
H1055       H  0.70290040  0.46992088  0.80009420     0.17710
F1056       F  0.76693128  0.02818554  0.77067562    -0.20050
C1057       C  0.92032698  0.23812739  0.87708099    -0.21480
C1058       C  0.90080906  0.21968808  0.83563634    -0.09530
C1059       C  0.91600070  0.23936790  0.79546372     0.29330
C1060       C  0.94937735  0.27740129  0.79668060    -0.21480
C1061       C  0.96883997  0.29624522  0.83791463    -0.09540
C1062       C  0.95452677  0.27610580  0.87829827     0.29340
F1063       F  0.47263436  0.29367270  0.91867966    -0.20060
H1064       H  0.90863822  0.22334136  0.90831733     0.17700
H1065       H  0.96027409  0.29210903  0.76514954     0.17710
F1066       F  0.89766471  0.22230271  0.75497252    -0.20050
C1067       C  0.83933562  0.02199795  0.79991962    -0.21480
C1068       C  0.81785558  0.49453460  0.83299964    -0.09530
C1069       C  0.80199220  0.50652947  0.86649804     0.29330
C1070       C  0.80655271  0.04475543  0.86554770    -0.21480
C1071       C  0.82549709  0.07085981  0.83030812    -0.09540
C1072       C  0.84279913  0.05943078  0.79816214     0.29340
F1073       F  0.85775182  0.08180626  0.76131890    -0.20060
H1074       H  0.85192020  0.01388263  0.77363365     0.17700
H1075       H  0.79326985  0.05320051  0.89073678     0.17710
F1076       F  0.78138505  0.48127455  0.89944981    -0.20050
C1077       C  0.83501573  0.24374625  0.79858916    -0.21480
C1078       C  0.82762545  0.22042879  0.83717202    -0.09530
C1079       C  0.81730227  0.23189847  0.87611414     0.29330
C1080       C  0.81356951  0.26596922  0.87572458    -0.21480
C1081       C  0.82100776  0.28929863  0.83684246    -0.09540
C1082       C  0.83234606  0.27809532  0.79842970     0.29340
F1083       F  0.83935338  0.29941543  0.75992469    -0.20060
H1084       H  0.84134325  0.23442339  0.76781955     0.17700
H1085       H  0.80513100  0.27423309  0.90576921     0.17710
F1086       F  0.80964406  0.20947681  0.91377489    -0.20050
C1087       C  0.56694591  0.10391806  0.46133734    -0.21480
C1088       C  0.56917536  0.06971109  0.47391218    -0.09530
C1089       C  0.60796427  0.07545825  0.47214183     0.29330
C1090       C  0.64104362  0.11122982  0.48604276    -0.21480
C1091       C  0.63816607  0.14545699  0.48477783    -0.09540
C1092       C  0.60142080  0.14207710  0.46773500     0.29340
F1093       F  0.59836327  0.17502167  0.45948867    -0.20060
H1094       H  0.53839227  0.10169282  0.45187207     0.17700
H1095       H  0.67020428  0.11359422  0.48822777     0.17710
F1096       F  0.61500227  0.05742950  0.43870339    -0.20050
C1097       C  0.92155983  0.37761324  0.46904235    -0.21480
C1098       C  0.92460426  0.41529011  0.47073504    -0.09530
C1099       C  0.88881336  0.41370170  0.45402435     0.29330
C1100       C  0.85191175  0.38018763  0.46155725    -0.21480
C1101       C  0.85036121  0.34530234  0.47825710    -0.09540
C1102       C  0.88528233  0.34298393  0.47715344     0.29340
F1103       F  0.88392196  0.30741524  0.48095840    -0.20060
H1104       H  0.94675992  0.37464427  0.46197858     0.17700
H1105       H  0.82478128  0.38099979  0.45230160     0.17710
F1106       F  0.88947326  0.44045918  0.42359211    -0.20050
C1107       C  0.87284591  0.00531151  0.46817366    -0.21480
C1108       C  0.84866289  0.48610801  0.50386250    -0.09530
C1109       C  0.86079643  0.46701809  0.53676352     0.29330
C1110       C  0.89687119  0.46718131  0.53385440    -0.21480
C1111       C  0.92170567  0.48733678  0.49864498    -0.09540
C1112       C  0.90931683  0.00653201  0.46577093     0.29340
F1113       F  0.93267391  0.02634355  0.43158807    -0.20060
H1114       H  0.86375096  0.02006667  0.44254524     0.17700
H1115       H  0.90600833  0.45249656  0.55950000     0.17710
F1116       F  0.83768931  0.44810852  0.57138841    -0.20050
C1117       C  0.63868237  0.01310633  0.53119845    -0.21480
C1118       C  0.64831971  0.49969268  0.49315017    -0.09530
C1119       C  0.62064791  0.48504040  0.45526341     0.29330
C1120       C  0.58383122  0.48330520  0.45591335    -0.21480
C1121       C  0.57414863  0.49617322  0.49440609    -0.09540
C1122       C  0.60173492  0.01100878  0.53211948     0.29340
F1123       F  0.59270675  0.02322450  0.56958785    -0.20060
H1124       H  0.65926403  0.02412748  0.56084770     0.17700
H1125       H  0.56278130  0.47202135  0.42664659     0.17710
F1126       F  0.62894308  0.47228753  0.41767167    -0.20050
C1127       C  0.53572531  0.13798668  0.53893431    -0.21480
C1128       C  0.00069294  0.13980222  0.52832691    -0.09530
C1129       C  0.96438377  0.10426030  0.52913287     0.29330
C1130       C  0.96374780  0.06812354  0.53163638    -0.21480
C1131       C  0.99829816  0.06542453  0.52617144    -0.09540
C1132       C  0.53382653  0.10049325  0.54157387     0.29340
F1133       F  0.56702944  0.09906111  0.55644478    -0.20060
H1134       H  0.56406645  0.16508049  0.54544081     0.17700
H1135       H  0.93607910  0.04372292  0.54072047     0.17710
F1136       F  0.92925940  0.10424836  0.52765814    -0.20050
C1137       C  0.52090976  0.37217388  0.48909378    -0.21480
C1138       C  0.98896885  0.34053303  0.50892720    -0.09530
C1139       C  0.96773522  0.34967810  0.53907766     0.29330
C1140       C  0.97498872  0.38922729  0.54253541    -0.21480
C1141       C  0.00344241  0.41942004  0.51596798    -0.09540
C1142       C  0.53190527  0.41073935  0.50073685     0.29340
F1143       F  0.56913332  0.42950549  0.52136637    -0.20060
H1144       H  0.54272456  0.36743267  0.47375711     0.17700
H1145       H  0.95504727  0.39482463  0.56069485     0.17710
F1146       F  0.93845858  0.32052978  0.56244952    -0.20050
C1147       C  0.68542717  0.25598225  0.20478660    -0.21480
C1148       C  0.67122356  0.26746521  0.16595506    -0.09530
C1149       C  0.65979190  0.24417710  0.12645880     0.29330
C1150       C  0.66321042  0.21003044  0.12581824    -0.21480
C1151       C  0.67715654  0.19851708  0.16482903    -0.09540
C1152       C  0.68803273  0.22148923  0.20442352     0.29340
F1153       F  0.70194181  0.21092387  0.24238692    -0.20060
H1154       H  0.69460135  0.27393051  0.23528770     0.17700
H1155       H  0.65435229  0.19220531  0.09524881     0.17710
F1156       F  0.64607333  0.25491476  0.08851057    -0.20050
C1157       C  0.68414408  0.44141716  0.13067056    -0.21480
C1158       C  0.67177762  0.41684108  0.16839609    -0.09530
C1159       C  0.66366411  0.43067766  0.20706221     0.29330
C1160       C  0.66757572  0.46848779  0.20772143    -0.21480
C1161       C  0.68046224  0.49349984  0.17016950    -0.09540
C1162       C  0.68879160  0.47951347  0.13150346     0.29340
F1163       F  0.70068350  0.00221239  0.09415802    -0.20060
H1164       H  0.69070442  0.43116015  0.10068801     0.17700
H1165       H  0.66099443  0.47840887  0.23793884     0.17710
F1166       F  0.65308863  0.40809410  0.24458311    -0.20050
C1167       C  0.57005475  0.25215698  0.13036798    -0.21480
C1168       C  0.59656453  0.26653138  0.16872873    -0.09530
C1169       C  0.58882555  0.24270401  0.20717581     0.29330
C1170       C  0.55528260  0.20463940  0.20685373    -0.21480
C1171       C  0.52855667  0.19004950  0.16847070    -0.09540
C1172       C  0.53616753  0.21433074  0.13015924     0.29340
F1173       F  0.01130359  0.20136503  0.09219886    -0.20060
H1174       H  0.57604958  0.27004486  0.10030847     0.17700
H1175       H  0.54981461  0.18688789  0.23697540     0.17710
F1176       F  0.61386848  0.25630507  0.24494213    -0.20050
C1177       C  0.80467033  0.46486507  0.13650689    -0.21480
C1178       C  0.82140286  0.48453500  0.17806150    -0.09530
C1179       C  0.80015967  0.46955703  0.21677398     0.29330
C1180       C  0.76231251  0.43535338  0.21358537    -0.21480
C1181       C  0.74586454  0.41561725  0.17198979    -0.09540
C1182       C  0.76735563  0.43039008  0.13349856     0.29340
F1183       F  0.75213792  0.41140368  0.09311392    -0.20060
H1184       H  0.82071825  0.47622105  0.10634124     0.17700
H1185       H  0.74596188  0.42391796  0.24351755     0.17710
F1186       F  0.81536446  0.98868579  0.25706659    -0.20050
C1187       C  0.57986355  0.34776078  0.12424480    -0.21480
C1188       C  0.59591999  0.34137872  0.16526923    -0.09530
C1189       C  0.57518050  0.33419147  0.20424342     0.29330
C1190       C  0.53937841  0.33472017  0.20241949    -0.21480
C1191       C  0.52318404  0.34103813  0.16142978    -0.09540
C1192       C  0.54336108  0.34706503  0.12211804     0.29340
F1193       F  0.52841226  0.35347810  0.08212928    -0.20060
H1194       H  0.59557311  0.35303886  0.09392822     0.17700
H1195       H  0.52393220  0.32963453  0.23291703     0.17710
F1196       F  0.58974509  0.32692803  0.24399366    -0.20050
C1197       C  0.77081365  0.35200230  0.20498226    -0.21480
C1198       C  0.74487939  0.34152249  0.16613353    -0.09530
C1199       C  0.75481114  0.33055385  0.12666464     0.29330
C1200       C  0.79037251  0.32986397  0.12629434    -0.21480
C1201       C  0.81674218  0.34087313  0.16501501    -0.09540
C1202       C  0.80672213  0.35205610  0.20446640     0.29340
F1203       F  0.83113812  0.36221886  0.24277397    -0.20060
H1204       H  0.76308856  0.36005946  0.23571122     0.17700
H1205       H  0.79764754  0.32145134  0.09548365     0.17710
F1206       F  0.73029543  0.32096008  0.08848901    -0.20050
O1207       O  0.90406157  0.63799925  0.30648198    -0.81070
O1208       O  0.80260711  0.68523067  0.41575079    -0.65760
O1209       O  0.83482948  0.63443069  0.33342144    -1.12360
C1210       C  0.87190909  0.75239279  0.24894493     1.05820
O1211       O  0.77240779  0.70130360  0.36031314    -0.78970
O1212       O  0.77466123  0.68608242  0.27533862    -0.66550
Ni1213     Ni  0.86691074  0.61161370  0.35215244     1.34870
C1214       C  0.77616693  0.65881411  0.25469494     0.84560
O1215       O  0.79684817  0.61228667  0.41427187    -0.79510
O1216       O  0.83090378  0.58168001  0.39718888    -0.89780
C1217       C  0.78076140  0.69980845  0.40184458     0.84130
O1218       O  0.90235605  0.65187863  0.39531342    -0.67980
O1219       O  0.84747973  0.75636165  0.27159764    -0.87270
C1220       C  0.89860526  0.67594169  0.41990552     0.84960
C1221       C  0.80472378  0.58395868  0.41841464     1.06530
H1222       H  0.86699639  0.72428176  0.35146604     0.38330
O1223       O  0.84251221  0.70344235  0.33691082    -1.09930
O1224       O  0.80613758  0.65383770  0.25796600    -0.66580
Ni1225     Ni  0.85656302  0.67825187  0.29282597     1.26350
O1226       O  0.86851661  0.68107994  0.41565896    -0.66810
O1227       O  0.87813410  0.72314440  0.25296505    -0.79100
C1228       C  0.89309418  0.63720842  0.26502493     0.84340
O1229       O  0.87053683  0.65090454  0.25229019    -0.66280
Ni1230     Ni  0.81105281  0.72709949  0.31663816     1.27450
Ni1231     Ni  0.81947811  0.65874843  0.37668411     1.26060
H1232       H  0.81046414  0.61296703  0.31927400     0.38880
C1233       C  0.70688380  0.84159597  0.16720163     0.02110
C1234       C  0.70714725  0.87788151  0.16928538     0.02110
C1235       C  0.67083684  0.87810999  0.16836452     0.02110
C1236       C  0.63422743  0.84158146  0.16705477     0.02110
C1237       C  0.63426010  0.80514913  0.16730064     0.02110
C1238       C  0.67061458  0.80530454  0.16645438     0.02110
O1239       O  0.70704945  0.61375487  0.23866628    -0.74600
O1240       O  0.61583143  0.56246098  0.15373846    -0.74640
O1241       O  0.66372715  0.53942040  0.19954666    -0.74690
O1242       O  0.65868211  0.63507367  0.19370846    -0.74740
O1243       O  0.69984630  0.65674364  0.13783003    -0.74670
O1244       O  0.70297154  0.55942114  0.14216143    -0.74650
O1245       O  0.65692426  0.58490170  0.09786847    -0.74630
O1246       O  0.74743299  0.63281278  0.18217222    -0.74690
Ni1247     Ni  0.65992086  0.58674262  0.19851815     1.25410
Ni1248     Ni  0.70332835  0.60910897  0.13808931     1.25360
C1249       C  0.74201546  0.63314976  0.22394432     0.87570
C1250       C  0.62170333  0.56631346  0.11163041     0.87510
C1251       C  0.68289332  0.53285995  0.17085617     0.87530
C1252       C  0.67857844  0.66162668  0.16519042     0.87710
O1253       O  0.95232097  0.90665510  0.14927798    -0.74600
O1254       O  0.91253163  0.82008104  0.23189227    -0.74640
O1255       O  0.98164928  0.86222014  0.19070473    -0.74690
O1256       O  0.88416991  0.86385763  0.19099102    -0.74740
O1257       O  0.85752989  0.81851340  0.13546037    -0.74670
O1258       O  0.95746163  0.82171336  0.13053393    -0.74650
O1259       O  0.88973574  0.77641035  0.17467940    -0.74630
O1260       O  0.92348298  0.86349364  0.09174341    -0.74690
Ni1261     Ni  0.93384729  0.86476900  0.19269043     1.25410
Ni1262     Ni  0.90640071  0.81844734  0.13095372     1.25360
C1263       C  0.94209205  0.89929677  0.10720077     0.87570
C1264       C  0.89345760  0.78418948  0.21695246     0.87510
C1265       C  0.98566126  0.84181778  0.16057577     0.87530
C1266       C  0.85461408  0.84102734  0.16380802     0.87710
O1267       O  0.89743957  0.62143395  0.18966434    -0.74600
O1268       O  0.92688547  0.56991422  0.10446102    -0.74640
O1269       O  0.86268666  0.54840993  0.15037424    -0.74690
O1270       O  0.96193125  0.64396771  0.14225019    -0.74740
O1271       O  0.98927357  0.62508228  0.19903410    -0.74670
O1272       O  0.88897026  0.52767142  0.20659835    -0.74650
O1273       O  0.95513440  0.55116983  0.16059205    -0.74630
O1274       O  0.92425621  0.60112358  0.24570851    -0.74690
Ni1275     Ni  0.91141375  0.59674307  0.14472529     1.25410
Ni1276     Ni  0.94044773  0.57553221  0.20500144     1.25360
C1277       C  0.90594982  0.61953319  0.23179410     0.87570
C1278       C  0.94500074  0.55131809  0.11874271     0.87510
C1279       C  0.85951736  0.52209894  0.17899806     0.87530
C1280       C  0.99167817  0.65092659  0.16973177     0.87710
O1281       O  0.51808360  0.76028266  0.57988236    -0.74600
O1282       O  0.92586054  0.69936528  0.49595141    -0.74640
O1283       O  0.97792077  0.68347296  0.54726621    -0.74690
O1284       O  0.96471374  0.77401920  0.53324216    -0.74740
O1285       O  0.50523890  0.79437077  0.47708450    -0.74670
O1286       O  0.51824386  0.70189834  0.49092441    -0.74650
O1287       O  0.96702624  0.71886451  0.44036608    -0.74630
O1288       O  0.55728585  0.77775607  0.52244644    -0.74690
Ni1289     Ni  0.97009979  0.72826390  0.54103678     1.25410
Ni1290     Ni  0.51313037  0.74880172  0.48048672     1.25360
C1291       C  0.55272281  0.78012972  0.56392056     0.87570
C1292       C  0.93179239  0.69951451  0.45387439     0.87510
C1293       C  0.99994813  0.67747298  0.52234409     0.87530
C1294       C  0.98509868  0.80061609  0.50528428     0.87710
O1295       O  0.73305280  0.96884877  0.56915366    -0.74600
O1296       O  0.78606570  0.55748394  0.49107870    -0.74640
O1297       O  0.71354274  0.51823540  0.52530428    -0.74690
O1298       O  0.80698108  0.50735709  0.53460842    -0.74740
O1299       O  0.78285518  0.96641525  0.47479685    -0.74670
O1300       O  0.68949321  0.97640044  0.46644133    -0.74650
O1301       O  0.76206209  0.51577148  0.43192130    -0.74630
O1302       O  0.70977645  0.92687503  0.51027470    -0.74690
Ni1303     Ni  0.76094205  0.51441775  0.53223254     1.25410
Ni1304     Ni  0.73522503  0.96985519  0.46879973     1.25360
C1305       C  0.71133926  0.93372053  0.55246136     0.87570
C1306       C  0.78257796  0.55106022  0.44861710     0.87510
C1307       C  0.68579470  0.99843630  0.49470695     0.87530
C1308       C  0.81073009  0.98604470  0.50520965     0.87710
C1309       C  0.53533545  0.99430638  0.49475334     0.02110
C1310       C  0.00032966  0.95616822  0.50005180     0.02110
C1311       C  0.96260185  0.95415873  0.48861356     0.02110
C1312       C  0.96130417  0.99012009  0.49744732     0.02110
C1313       C  0.99770730  0.52839066  0.50531880     0.02110
C1314       C  0.53351182  0.53054481  0.49065532     0.02110
O1315       O  0.71465717  0.78093414  0.51140741    -0.74600
O1316       O  0.74743424  0.73507374  0.42087784    -0.74640
O1317       O  0.68028358  0.71198671  0.46451112    -0.74690
O1318       O  0.78070462  0.80641199  0.46325052    -0.74740
O1319       O  0.80806179  0.78319525  0.51515628    -0.74670
O1320       O  0.70453358  0.68738925  0.51851101    -0.74650
O1321       O  0.77165597  0.71113547  0.47573070    -0.74630
O1322       O  0.74202813  0.75813026  0.56387003    -0.74690
Ni1323     Ni  0.72996538  0.75962977  0.46317668     1.25410
Ni1324     Ni  0.75740489  0.73426970  0.52052474     1.25360
C1325       C  0.72218112  0.77552854  0.55304950     0.87570
C1326       C  0.76527121  0.71566665  0.43413032     0.87510
C1327       C  0.67578598  0.68378756  0.49055156     0.87530
C1328       C  0.81128198  0.80994578  0.48649437     0.87710
O1329       O  0.89965216  0.92886150  0.96614738    -0.81070
O1330       O  0.55289250  0.52635755  0.08834322    -0.65760
O1331       O  0.96701868  0.99831582  0.99901667    -1.12360
C1332       C  0.54304155  0.96090005  0.91513166     1.05820
O1333       O  0.59542859  0.55878859  0.03687142    -0.78970
O1334       O  0.57594312  0.55789642  0.94945600    -0.66550
Ni1335     Ni  0.91302686  0.96663365  0.01386178     1.34870
C1336       C  0.54639456  0.55640113  0.92641991     0.84560
O1337       O  0.98746499  0.53370016  0.08512585    -0.79510
O1338       O  0.92212518  0.50332589  0.06153178    -0.89780
C1339       C  0.58823388  0.54931150  0.07758552     0.84130
O1340       O  0.91946630  0.93056355  0.05402633    -0.67980
O1341       O  0.57302124  0.98536571  0.94055285    -0.87270
C1342       C  0.94926546  0.93238482  0.07692822     0.84960
C1343       C  0.95220289  0.52813024  0.08660724     1.06530
H1344       H  0.52523212  0.96529529  0.01526521     0.38330
O1345       O  0.52807887  0.98995281  0.00349832    -1.09930
O1346       O  0.51117617  0.52678830  0.92631235    -0.66580
Ni1347     Ni  0.98644612  0.97656211  0.95716904     1.26440
O1348       O  0.98432343  0.96202257  0.07644816    -0.66810
O1349       O  0.50771666  0.95507825  0.91691576    -0.79100
C1350       C  0.90673066  0.93811948  0.92532848     0.84340
O1351       O  0.94194595  0.96179898  0.91446522    -0.66280
Ni1352     Ni  0.58211191  0.52143304  0.98885947     1.27450
Ni1353     Ni  0.50870980  0.51191050  0.04527362     1.26060
H1354       H  0.96971135  0.52291128  0.98723410     0.38880
O1355       O  0.71670936  0.78300694  0.63051736    -0.81070
O1356       O  0.62429902  0.83632626  0.75142279    -0.65760
O1357       O  0.65047498  0.78307841  0.66522046    -1.12360
C1358       C  0.68685548  0.90143291  0.58249561     1.05820
O1359       O  0.59121888  0.85042016  0.69786286    -0.78970
O1360       O  0.58897728  0.83592746  0.61203397    -0.66550
Ni1361     Ni  0.68468696  0.76232314  0.68237874     1.34870
C1362       C  0.58835973  0.80709806  0.59231626     0.84560
O1363       O  0.61626076  0.76360191  0.74874485    -0.79510
O1364       O  0.65430010  0.73698023  0.73423265    -0.89780
C1365       C  0.60171656  0.85019650  0.73904551     0.84130
O1366       O  0.72418732  0.80784643  0.71677342    -0.67980
O1367       O  0.66349220  0.90636674  0.60619302    -0.87270
C1368       C  0.72058939  0.83065342  0.74344442     0.84960
C1369       C  0.62716905  0.73782581  0.75543468     1.06530
H1370       H  0.68468335  0.87342068  0.68273427     0.38330
O1371       O  0.65937983  0.85258809  0.66963895    -1.09930
O1372       O  0.61809644  0.80179069  0.59342545    -0.66580
Ni1373     Ni  0.67032140  0.82632543  0.62408536     1.26350
O1374       O  0.68836749  0.83146552  0.74547043    -0.66810
O1375       O  0.69067449  0.87075912  0.58430872    -0.79100
C1376       C  0.70619912  0.78679781  0.58987888     0.84340
O1377       O  0.68178256  0.79893406  0.58088279    -0.66280
Ni1378     Ni  0.62790511  0.87672945  0.65232183     1.27450
Ni1379     Ni  0.63780857  0.80878485  0.71010693     1.26060
H1380       H  0.62569211  0.76109430  0.65260768     0.38880
O1381       O  0.74852724  0.85487288  0.81727850    -0.74600
O1382       O  0.83790668  0.90093169  0.90420680    -0.74640
O1383       O  0.79281796  0.92755468  0.85992616    -0.74690
O1384       O  0.79526539  0.82958307  0.86232373    -0.74740
O1385       O  0.83820030  0.85284328  0.80843000    -0.74670
O1386       O  0.83257541  0.94764734  0.80307594    -0.74650
O1387       O  0.87977650  0.92471082  0.84915234    -0.74630
O1388       O  0.79008334  0.87415927  0.76202143    -0.74690
Ni1389     Ni  0.79195452  0.87745777  0.86281867     1.25410
Ni1390     Ni  0.83647339  0.90069754  0.80360532     1.25360
C1391       C  0.75464135  0.85515435  0.77553655     0.87570
C1392       C  0.87338055  0.92034679  0.89108209     0.87510
C1393       C  0.81374768  0.95444151  0.83195287     0.87530
C1394       C  0.81787592  0.82558607  0.83604805     0.87710
C1395       C  0.78925847  0.64602448  0.82747187     0.02110
C1396       C  0.82642885  0.68168225  0.83402552     0.02110
C1397       C  0.86233550  0.68131536  0.83382094     0.02110
C1398       C  0.86159266  0.64490778  0.83133312     0.02110
C1399       C  0.82440794  0.60853317  0.82511521     0.02110
C1400       C  0.78724273  0.60890004  0.81728016     0.02110
O1401       O  0.54566003  0.58294168  0.85417587    -0.74600
O1402       O  0.58777368  0.67001651  0.77255658    -0.74640
O1403       O  0.61541447  0.62624566  0.81491393    -0.74690
O1404       O  0.51741924  0.62784459  0.81199601    -0.74740
O1405       O  0.54044187  0.66811254  0.87233208    -0.74670
O1406       O  0.64054690  0.67088559  0.87136318    -0.74650
O1407       O  0.60968106  0.71339587  0.82998342    -0.74630
O1408       O  0.57287495  0.62552782  0.91240342    -0.74690
Ni1409     Ni  0.56545635  0.62520683  0.81142610     1.25410
Ni1410     Ni  0.59150550  0.67105921  0.87366799     1.25360
C1411       C  0.55443589  0.58985085  0.89647246     0.87570
C1412       C  0.60670517  0.70581092  0.78768248     0.87510
C1413       C  0.64421416  0.64893550  0.84303829     0.87530
C1414       C  0.51266142  0.64797238  0.84191130     0.87710
O1415       O  0.59732631  0.86640175  0.81381037    -0.74600
O1416       O  0.57131586  0.92212905  0.89657699    -0.74640
O1417       O  0.53490218  0.84556481  0.86465777    -0.74690
O1418       O  0.63285483  0.94166371  0.84472921    -0.74740
O1419       O  0.60101917  0.95897493  0.79138295    -0.74670
O1420       O  0.50504558  0.86032527  0.80653319    -0.74650
O1421       O  0.53724710  0.93508633  0.84154965    -0.74630
O1422       O  0.56850250  0.88440170  0.75755081    -0.74690
Ni1423     Ni  0.58504591  0.89338067  0.85715912     1.25410
Ni1424     Ni  0.55173066  0.91026096  0.79734797     1.25360
C1425       C  0.58807502  0.86724827  0.77185184     0.87570
C1426       C  0.55038918  0.93794208  0.88281556     0.87510
C1427       C  0.50443780  0.83624141  0.83709487     0.87530
C1428       C  0.63306363  0.96585464  0.81449384     0.87710
C1429       C  0.91715230  0.64132030  0.87639726    -0.21480
C1430       C  0.90052468  0.64565628  0.83461345    -0.09530
C1431       C  0.92210427  0.65302494  0.79617678     0.29330
C1432       C  0.95833724  0.65334167  0.79893970    -0.21480
C1433       C  0.97473470  0.64832314  0.84042347    -0.09540
C1434       C  0.95433180  0.64314775  0.87947509     0.29340
F1435       F  0.96973596  0.63867835  0.92019380    -0.20060
H1436       H  0.90135615  0.63667594  0.90651659     0.17700
H1437       H  0.97393378  0.65802180  0.76863679     0.17710
F1438       F  0.90759835  0.65893905  0.75564316    -0.20050
C1439       C  0.69498844  0.63220604  0.87468851    -0.21480
C1440       C  0.68257307  0.65074499  0.84152406    -0.09530
C1441       C  0.70629783  0.66990852  0.80561813     0.29330
C1442       C  0.74157925  0.66933669  0.80198206    -0.21480
C1443       C  0.75327722  0.64907100  0.83386735    -0.09540
C1444       C  0.73029411  0.63133856  0.87095229     0.29340
F1445       F  0.74135874  0.61214202  0.90243031    -0.20060
H1446       H  0.67677005  0.61748959  0.90261754     0.17700
H1447       H  0.75873161  0.68280891  0.77301524     0.17710
F1448       F  0.69485398  0.68845972  0.77365019    -0.20050
C1449       C  0.71078598  0.57218357  0.79232729    -0.21480
C1450       C  0.74679220  0.57140318  0.80175300    -0.09530
C1451       C  0.74175613  0.53312119  0.79512430     0.29330
C1452       C  0.70524972  0.49887510  0.80193637    -0.21480
C1453       C  0.67109482  0.50173099  0.80588959    -0.09540
C1454       C  0.67343506  0.53829401  0.79671656     0.29340
F1455       F  0.64005094  0.54150892  0.79245908    -0.20060
H1456       H  0.71038308  0.59803450  0.77988654     0.17700
H1457       H  0.70290041  0.96992088  0.80009418     0.17710
F1458       F  0.76693129  0.52818552  0.77067565    -0.20050
C1459       C  0.92032698  0.73812739  0.87708100    -0.21480
C1460       C  0.90080906  0.71968808  0.83563635    -0.09530
C1461       C  0.91600070  0.73936790  0.79546373     0.29330
C1462       C  0.94937735  0.77740128  0.79668060    -0.21480
C1463       C  0.96883997  0.79624521  0.83791464    -0.09540
C1464       C  0.95452677  0.77610580  0.87829827     0.29340
F1465       F  0.47263436  0.79367270  0.91867968    -0.20060
H1466       H  0.90863822  0.72334137  0.90831733     0.17700
H1467       H  0.96027409  0.79210903  0.76514954     0.17710
F1468       F  0.89766471  0.72230270  0.75497253    -0.20050
C1469       C  0.83933562  0.52199795  0.79991963    -0.21480
C1470       C  0.81785559  0.99453460  0.83299963    -0.09530
C1471       C  0.80199221  0.00652948  0.86649803     0.29330
C1472       C  0.80655271  0.54475542  0.86554771    -0.21480
C1473       C  0.82549710  0.57085981  0.83030813    -0.09540
C1474       C  0.84279914  0.55943078  0.79816216     0.29340
F1475       F  0.85775183  0.58180626  0.76131892    -0.20060
H1476       H  0.85192020  0.51388263  0.77363367     0.17700
H1477       H  0.79326985  0.55320051  0.89073679     0.17710
F1478       F  0.78138506  0.98127456  0.89944981    -0.20050
C1479       C  0.83501573  0.74374625  0.79858917    -0.21480
C1480       C  0.82762545  0.72042878  0.83717203    -0.09530
C1481       C  0.81730226  0.73189847  0.87611415     0.29330
C1482       C  0.81356950  0.76596922  0.87572458    -0.21480
C1483       C  0.82100776  0.78929864  0.83684246    -0.09540
C1484       C  0.83234607  0.77809532  0.79842971     0.29340
F1485       F  0.83935340  0.79941544  0.75992470    -0.20060
H1486       H  0.84134326  0.73442340  0.76781956     0.17700
H1487       H  0.80513099  0.77423309  0.90576921     0.17710
F1488       F  0.80964405  0.70947681  0.91377489    -0.20050
C1489       C  0.56694614  0.60391797  0.46133729    -0.21480
C1490       C  0.56917561  0.56971111  0.47391265    -0.09530
C1491       C  0.60796463  0.57545838  0.47214316     0.29330
C1492       C  0.64104373  0.61123000  0.48604435    -0.21480
C1493       C  0.63816616  0.64545716  0.48477836    -0.09540
C1494       C  0.60142096  0.64207709  0.46773487     0.29340
F1495       F  0.59836340  0.67502156  0.45948784    -0.20060
H1496       H  0.53839250  0.60169262  0.45187164     0.17700
H1497       H  0.67020442  0.61359443  0.48823006     0.17710
F1498       F  0.61500324  0.55743009  0.43870476    -0.20050
C1499       C  0.92155992  0.87761332  0.46904212    -0.21480
C1500       C  0.92460433  0.91529018  0.47073486    -0.09530
C1501       C  0.88881346  0.91370179  0.45402412     0.29330
C1502       C  0.85191184  0.88018772  0.46155695    -0.21480
C1503       C  0.85036129  0.84530243  0.47825680    -0.09540
C1504       C  0.88528241  0.84298401  0.47715315     0.29340
F1505       F  0.88392203  0.80741532  0.48095813    -0.20060
H1506       H  0.94676006  0.87464439  0.46197848     0.17700
H1507       H  0.82478137  0.88099989  0.45230130     0.17710
F1508       F  0.88947341  0.94045933  0.42359193    -0.20050
C1509       C  0.87284593  0.50531148  0.46817361    -0.21480
C1510       C  0.84866285  0.98610798  0.50386251    -0.09530
C1511       C  0.86079636  0.96701801  0.53676348     0.29330
C1512       C  0.89687111  0.96718123  0.53385434    -0.21480
C1513       C  0.92170562  0.98733676  0.49864497    -0.09540
C1514       C  0.90931685  0.50653198  0.46577089     0.29340
F1515       F  0.93267391  0.52634346  0.43158800    -0.20060
H1516       H  0.86375096  0.52006660  0.44254516     0.17700
H1517       H  0.90600824  0.95249644  0.55949991     0.17710
F1518       F  0.83768922  0.94810838  0.57138834    -0.20050
C1519       C  0.63868214  0.51310574  0.53119869    -0.21480
C1520       C  0.64831975  0.99969283  0.49315013    -0.09530
C1521       C  0.62064777  0.98504017  0.45526355     0.29330
C1522       C  0.58383108  0.98330495  0.45591351    -0.21480
C1523       C  0.57414866  0.99617336  0.49440606    -0.09540
C1524       C  0.60173469  0.51100817  0.53211973     0.29340
F1525       F  0.59270634  0.52322349  0.56958826    -0.20060
H1526       H  0.65926366  0.52412657  0.56084809     0.17700
H1527       H  0.56278101  0.97202076  0.42664690     0.17710
F1528       F  0.62894275  0.97228690  0.41767198    -0.20050
C1529       C  0.53572537  0.63798680  0.53893404    -0.21480
C1530       C  0.00069296  0.63980228  0.52832671    -0.09530
C1531       C  0.96438380  0.60426035  0.52913267     0.29330
C1532       C  0.96374784  0.56812359  0.53163623    -0.21480
C1533       C  0.99829820  0.56542458  0.52617133    -0.09540
C1534       C  0.53382661  0.60049338  0.54157369     0.29340
F1535       F  0.56702951  0.59906128  0.55644479    -0.20060
H1536       H  0.56406650  0.66508062  0.54544052     0.17700
H1537       H  0.93607915  0.54372299  0.54072036     0.17710
F1538       F  0.92925942  0.60424840  0.52765795    -0.20050
C1539       C  0.52091032  0.87217416  0.48909486    -0.21480
C1540       C  0.98896895  0.84053314  0.50892748    -0.09530
C1541       C  0.96773503  0.84967808  0.53907765     0.29330
C1542       C  0.97498849  0.88922726  0.54253543    -0.21480
C1543       C  0.00344239  0.91942010  0.51596827    -0.09540
C1544       C  0.53190556  0.91073959  0.50073787     0.29340
F1545       F  0.56913352  0.92950602  0.52136760    -0.20060
H1546       H  0.54272539  0.86743304  0.47375872     0.17700
H1547       H  0.95504685  0.89482451  0.56069462     0.17710
F1548       F  0.93845816  0.82052966  0.56244916    -0.20050
C1549       C  0.68542737  0.75598233  0.20478666    -0.21480
C1550       C  0.67122356  0.76746520  0.16595520    -0.09530
C1551       C  0.65979171  0.74417701  0.12645900     0.29330
C1552       C  0.66321021  0.71003034  0.12581839    -0.21480
C1553       C  0.67715653  0.69851707  0.16482909    -0.09540
C1554       C  0.68803294  0.72148932  0.20442353     0.29340
F1555       F  0.70194223  0.71092405  0.24238683    -0.20060
H1556       H  0.69460170  0.77393065  0.23528772     0.17700
H1557       H  0.65435192  0.69220514  0.09524901     0.17710
F1558       F  0.64607295  0.75491458  0.08851084    -0.20050
C1559       C  0.68414407  0.94141714  0.13067066    -0.21480
C1560       C  0.67177763  0.91684109  0.16839621    -0.09530
C1561       C  0.66366413  0.93067769  0.20706232     0.29330
C1562       C  0.66757574  0.96848782  0.20772151    -0.21480
C1563       C  0.68046224  0.99349984  0.17016956    -0.09540
C1564       C  0.68879158  0.97951344  0.13150353     0.29340
F1565       F  0.70068355  0.50221243  0.09415798    -0.20060
H1566       H  0.69070440  0.93116011  0.10068812     0.17700
H1567       H  0.66099446  0.97840891  0.23793892     0.17710
F1568       F  0.65308866  0.90809414  0.24458323    -0.20050
C1569       C  0.57005468  0.75215707  0.13036822    -0.21480
C1570       C  0.59656453  0.76653139  0.16872892    -0.09530
C1571       C  0.58882561  0.74270394  0.20717593     0.29330
C1572       C  0.55528265  0.70463933  0.20685381    -0.21480
C1573       C  0.52855666  0.69004951  0.16847082    -0.09540
C1574       C  0.53616746  0.71433084  0.13015944     0.29340
F1575       F  0.01130360  0.70136500  0.09219884    -0.20060
H1576       H  0.57604946  0.77004501  0.10030875     0.17700
H1577       H  0.54981470  0.68688775  0.23697543     0.17710
F1578       F  0.61386860  0.75630491  0.24494221    -0.20050
C1579       C  0.80467032  0.96486504  0.13650692    -0.21480
C1580       C  0.82140287  0.98453500  0.17806152    -0.09530
C1581       C  0.80015968  0.96955707  0.21677401     0.29330
C1582       C  0.76231253  0.93535342  0.21358543    -0.21480
C1583       C  0.74586455  0.91561726  0.17198987    -0.09540
C1584       C  0.76735561  0.93039005  0.13349862     0.29340
F1585       F  0.75213790  0.91140362  0.09311401    -0.20060
H1586       H  0.82071823  0.97622099  0.10634126     0.17700
H1587       H  0.74596191  0.92391802  0.24351762     0.17710
F1588       F  0.81536442  0.48868572  0.25706658    -0.20050
C1589       C  0.57986360  0.84776085  0.12424496    -0.21480
C1590       C  0.59592001  0.84137874  0.16526939    -0.09530
C1591       C  0.57518049  0.83419146  0.20424356     0.29330
C1592       C  0.53937840  0.83472018  0.20241961    -0.21480
C1593       C  0.52318406  0.84103817  0.16142990    -0.09540
C1594       C  0.54336114  0.84706511  0.12211818     0.29340
F1595       F  0.52841235  0.85347822  0.08212942    -0.20060
H1596       H  0.59557318  0.85303896  0.09392840     0.17700
H1597       H  0.52393216  0.82963450  0.23291714     0.17710
F1598       F  0.58974505  0.82692800  0.24399381    -0.20050
C1599       C  0.77081372  0.85200240  0.20498230    -0.21480
C1600       C  0.74487939  0.84152250  0.16613362    -0.09530
C1601       C  0.75481108  0.83055376  0.12666475     0.29330
C1602       C  0.79037245  0.82986389  0.12629442    -0.21480
C1603       C  0.81674219  0.84087316  0.16501504    -0.09540
C1604       C  0.80672220  0.85205622  0.20446641     0.29340
F1605       F  0.83113826  0.86221908  0.24277393    -0.20060
H1606       H  0.76308868  0.86005963  0.23571125     0.17700
H1607       H  0.79764743  0.82145119  0.09548374     0.17710
F1608       F  0.73029530  0.82095989  0.08848917    -0.20050
loop_ 
_geom_bond_atom_site_label_1 
_geom_bond_atom_site_label_2 
_geom_bond_distance 
_geom_bond_site_symmetry_2 
_ccdc_geom_bond_type 
O1           Ni7   1.926       .  S
O1           C22   1.271       .  A
O2          Ni25   1.920       .  S
O2           C11   1.275       .  A
O3           Ni7   1.902       .  S
O3          Ni25   1.909       .  S
O3          Ni19   1.916       .  S
O3           H26   0.967       .  S
C4           O21   1.275       .  A
C4           O13   1.273       .  A
C4           C58   1.467       .  S
O5          Ni24   1.911       .  S
O5           C11   1.262       .  A
O6          Ni24   1.906       .  S
O6            C8   1.266       .  A
Ni7          O10   1.914       .  S
Ni7          O12   1.917       .  S
C8           O18   1.266       .  A
C8           C43   1.460       .  S
O9          Ni25   1.931       .  S
O9           C15   1.281       .  A
O10          C15   1.274       .  A
C11         C120   1.466       .  S
O12          C14   1.272       .  A
O13         Ni24   1.917       .  S
C14          O20   1.275       .  A
C14          C86   1.481       .  S
C15         C100   1.460       .  S
H16          O17   0.965       .  S
O17         Ni25   1.925       .  S
O17         Ni19   1.919       .  S
O17         Ni24   1.918       .  S
O18         Ni19   1.922       .  S
Ni19         O23   1.901       .  S
Ni19         O21   1.929       .  S
O20         Ni25   1.946       .  S
C22          O23   1.264       .  A
C22          C71   1.466       .  S
C27         C394   1.477       .  S
C27          C28   1.406       .  A
C27          C32   1.405       .  A
C28         C377   1.480       .  S
C28          C29   1.410       .  A
C29         C354   1.486       .  S
C29          C30   1.416       .  A
C30         C384   1.478       .  S
C30          C31   1.415       .  A
C31         C364   1.482       .  S
C31          C32   1.408       .  A
C32         C344   1.481       .  S
O33         Ni41   1.921       .  S
O33          C43   1.282       .  A
O34         Ni41   1.924       .  S
O34          C44   1.282       .  A
O35         Ni41   1.914       .  S
O35          C45   1.281       .  A
O36         Ni41   1.902       .  S
O36          C46   1.278       .  A
O37         Ni42   1.920       .  S
O37          C46   1.282       .  A
O38         Ni42   1.923       .  S
O38          C45   1.283       .  A
O39         Ni42   1.898       .  S
O39          C44   1.278       .  A
O40         Ni42   1.910       .  S
O40          C43   1.278       .  A
Ni41        Ni42   2.392       .  S
C44         C133   1.459       .  S
C45         C759   1.483   1_545  S
C46         C347   1.460       .  S
O47         Ni55   1.920       .  S
O47          C57   1.281       .  A
O48         Ni55   1.911       .  S
O48          C58   1.280       .  A
O49         Ni55   1.910       .  S
O49          C59   1.279       .  A
O50         Ni55   1.905       .  S
O50          C60   1.279       .  A
O51         Ni56   1.910       .  S
O51          C60   1.281       .  A
O52         Ni56   1.920       .  S
O52          C59   1.281       .  A
O53         Ni56   1.932       .  S
O53          C58   1.283       .  A
O54         Ni56   1.925       .  S
O54          C57   1.282       .  A
Ni55        Ni56   2.390       .  S
C57         C136   1.469       .  S
C59        C1191   1.468       .  S
C60         C397   1.468       .  S
O61         Ni69   1.922       .  S
O61          C71   1.283       .  A
O62         Ni69   1.918       .  S
O62          C72   1.282       .  A
O63         Ni69   1.896       .  S
O63          C73   1.276       .  A
O64         Ni69   1.902       .  S
O64          C74   1.278       .  A
O65         Ni70   1.923       .  S
O65          C74   1.284       .  A
O66         Ni70   1.932       .  S
O66          C73   1.284       .  A
O67         Ni70   1.919       .  S
O67          C72   1.279       .  A
O68         Ni70   1.910       .  S
O68          C71   1.279       .  A
Ni69        Ni70   2.391       .  S
C72         C137   1.463       .  S
C73         C776   1.465   1_545  S
C74        C1171   1.477       .  S
O75        Ni887   1.945   1_455  S
O75          C85   1.289       .  A
O76         Ni83   1.953       .  S
O76          C86   1.289       .  A
O77         Ni83   1.911       .  S
O77          C87   1.279       .  A
O78         Ni83   1.896       .  S
O78          C88   1.272       .  A
O79         Ni84   1.939       .  S
O79         C892   1.292   1_455  A
O80         Ni84   1.943       .  S
O80         C891   1.286   1_455  A
O81        Ni888   1.910       .  S
O81          C86   1.276       .  A
O82         Ni84   1.893       .  S
O82          C85   1.272       .  A
Ni83        O879   1.945       .  S
Ni83       Ni888   2.388       .  S
Ni84        O885   1.910   1_455  S
Ni84       Ni887   2.388   1_455  S
C85         C156   1.464       .  S
C87         O884   1.286       .  A
C87         C324   1.483       .  S
C88         O883   1.292       .  A
C88         C334   1.486       .  S
O89        Ni499   1.914       .  S
O89          C99   1.280       .  A
O90         Ni97   1.919       .  S
O90         C100   1.279       .  A
O91         Ni97   1.912       .  S
O91         C503   1.281   1_545  A
O92         Ni97   1.933       .  S
O92         C504   1.284   1_545  A
O93         Ni98   1.912       .  S
O93         C102   1.279       .  A
O94         Ni98   1.909       .  S
O94         C101   1.280       .  A
O95        Ni500   1.916   1_545  S
O95         C100   1.281       .  A
O96         Ni98   1.924       .  S
O96          C99   1.281       .  A
Ni97        O491   1.914   1_545  S
Ni97       Ni500   2.391   1_545  S
Ni98        O497   1.916       .  S
Ni98       Ni499   2.391       .  S
C99         C152   1.465       .  S
C101        O493   1.281       .  A
C101        C314   1.475       .  S
C102        O494   1.284       .  A
C102        C304   1.473       .  S
C103        C317   1.470       .  S
C103        C908   1.437       .  A
C103        C510   1.445       .  A
C104        C337   1.550       .  S
C104        C105   1.440       .  A
C104        C907   1.437       .  A
C105        C294   1.559       .  S
C105        C106   1.453       .  A
C106        C307   1.487       .  S
C106        C509   1.457       .  A
C107        C327   1.570       .  S
C107        C508   1.457   1_545  A
C107        C912   1.447       .  A
C108        C284   1.558       .  S
C108        C505   1.445   1_545  A
C108        C911   1.447   1_455  A
O109       Ni117   1.943       .  S
O109        C119   1.289       .  A
O110       Ni117   1.946       .  S
O110        C120   1.291       .  A
O111       Ni117   1.889       .  S
O111        C121   1.270       .  A
O112       Ni117   1.894       .  S
O112        C122   1.274       .  A
O113       Ni118   1.945       .  S
O113        C122   1.289       .  A
O114       Ni118   1.941       .  S
O114        C121   1.291       .  A
O115       Ni118   1.886       .  S
O115        C120   1.270       .  A
O116       Ni118   1.899       .  S
O116        C119   1.275       .  A
Ni117      Ni118   2.389       .  S
C119        C170   1.474       .  S
C121        C287   1.474       .  S
C122        C297   1.481       .  S
O123       Ni129   1.917   1_556  S
O123        C144   1.268       .  A
O124       Ni147   1.909       .  S
O124        C133   1.265       .  A
O125       Ni129   1.902   1_556  S
O125       Ni141   1.914       .  S
O125      Ni1353   1.909   1_556  S
O125        H550   0.966       .  S
C126        O143   1.276       .  A
C126        O135   1.276       .  A
C126        C220   1.463       .  S
O127       Ni146   1.914   1_554  S
O127        C133   1.267       .  A
O128       Ni146   1.910       .  S
O128        C130   1.267       .  A
Ni129       O134   1.916       .  S
Ni129       O534   1.922       .  S
C130        O140   1.270       .  A
C130        C205   1.467       .  S
O131       Ni951   1.922       .  S
O131        C137   1.277       .  A
O132       Ni531   1.922   1_545  S
O132        C137   1.276       .  A
O134        C136   1.268       .  A
O135       Ni548   1.921       .  S
C136        O142   1.267       .  A
H138        O139   0.966       .  S
O139       Ni549   1.916       .  S
O139       Ni945   1.910   1_454  S
O139       Ni548   1.901   1_554  S
O140      Ni1347   1.931   1_445  S
Ni141       O145   1.909       .  S
Ni141      O1346   1.931       .  S
Ni141       O947   1.923       .  S
Ni141       O943   1.910   1_556  S
O142      Ni1353   1.925       .  S
O143       Ni945   1.923   1_455  S
C144        O145   1.267       .  A
C144        C186   1.461       .  S
Ni146       O537   1.921   1_545  S
Ni146       O541   1.901   1_546  S
Ni147       O935   1.922   1_455  S
Ni147      O1348   1.925   1_445  S
Ni147      O1331   1.909   1_444  S
Ni147       O541   1.916   1_545  S
H148        O527   0.966   1_545  S
O149       Ni155   1.946       .  S
O149        C170   1.276       .  A
O150       Ni173   1.912       .  S
O150        C159   1.267       .  A
O151       Ni155   1.902       .  S
O151       Ni173   1.918       .  S
O151       Ni167   1.910       .  S
O151        H174   0.967       .  S
C152        O169   1.271       .  A
C152        O161   1.276       .  A
O153       Ni172   1.913       .  S
O153        C159   1.264       .  A
O154       Ni172   1.914       .  S
O154        C156   1.266       .  A
Ni155       O158   1.940       .  S
Ni155       O160   1.915       .  S
C156        O166   1.267       .  A
O157       Ni173   1.914       .  S
O157        C163   1.273       .  A
O158        C163   1.280       .  A
C159        C219   1.460       .  S
O160        C162   1.269       .  A
O161       Ni172   1.928       .  S
C162        O168   1.271       .  A
C162        C185   1.471       .  S
C163        C206   1.469       .  S
H164        O165   0.966       .  S
O165       Ni173   1.913       .  S
O165       Ni167   1.910       .  S
O165       Ni172   1.913       .  S
O166       Ni167   1.918       .  S
Ni167       O171   1.900       .  S
Ni167       O169   1.915       .  S
O168       Ni173   1.934       .  S
C170        O171   1.262       .  A
O175       Ni183   1.920       .  S
O175        C185   1.281       .  A
O176       Ni183   1.906       .  S
O176        C186   1.279       .  A
O177       Ni183   1.928       .  S
O177        C187   1.283       .  A
O178       Ni183   1.926       .  S
O178        C188   1.284       .  A
O179       Ni184   1.893       .  S
O179        C188   1.277       .  A
O180       Ni184   1.902       .  S
O180        C187   1.280       .  A
O181       Ni184   1.921       .  S
O181        C186   1.281       .  A
O182       Ni184   1.926       .  S
O182        C185   1.282       .  A
Ni183      Ni184   2.388       .  S
C187        C264   1.484       .  S
C188        C277   1.473       .  S
C189        C237   1.484       .  S
C189        C190   1.416       .  A
C189        C194   1.443       .  A
C190        C274   1.487       .  S
C190        C191   1.400       .  A
C191        C254   1.487       .  S
C191        C192   1.403       .  A
C192        C224   1.491       .  S
C192        C193   1.429       .  A
C193        C267   1.488       .  S
C193        C194   1.450       .  A
C194        C244   1.560       .  S
O195       Ni203   1.917       .  S
O195        C205   1.279       .  A
O196       Ni203   1.910       .  S
O196        C206   1.278       .  A
O197       Ni203   1.912       .  S
O197        C207   1.280       .  A
O198       Ni203   1.917       .  S
O198        C208   1.282       .  A
O199       Ni204   1.922       .  S
O199        C208   1.281       .  A
O200       Ni204   1.911       .  S
O200        C207   1.278       .  A
O201       Ni204   1.937       .  S
O201        C206   1.284       .  A
O202       Ni204   1.927       .  S
O202        C205   1.283       .  A
Ni203      Ni204   2.391       .  S
C207        C234   1.457       .  S
C208       C1031   1.474   1_455  S
O209       Ni217   1.910       .  S
O209        C219   1.278       .  A
O210       Ni217   1.913       .  S
O210        C220   1.280       .  A
O211       Ni217   1.924       .  S
O211        C221   1.282       .  A
O212       Ni217   1.915       .  S
O212        C222   1.281       .  A
O213       Ni218   1.916       .  S
O213        C222   1.280       .  A
O214       Ni218   1.907       .  S
O214        C221   1.280       .  A
O215       Ni218   1.922       .  S
O215        C220   1.280       .  A
O216       Ni218   1.914       .  S
O216        C219   1.282       .  A
Ni217      Ni218   2.391       .  S
C221       C1061   1.474   1_455  S
C222        C649   1.469       .  S
C223        C224   1.404       .  A
C223        C228   1.403       .  A
C223        H230   1.083       .  S
C224        C225   1.405       .  A
C225        C226   1.395       .  A
C225        F232   1.356       .  S
C226        C227   1.401       .  A
C226        H231   1.083       .  S
C227       C1012   1.474       .  S
C227        C228   1.408       .  A
C228        F229   1.357       .  S
C233        C234   1.401       .  A
C233        C238   1.398       .  A
C233        H240   1.083       .  S
C234        C235   1.400       .  A
C235        C236   1.391       .  A
C235        F242   1.358       .  S
C236        C237   1.407       .  A
C236        H241   1.082       .  S
C237        C238   1.406       .  A
C238        F239   1.357       .  S
C243        C244   1.418       .  A
C243        C248   1.398       .  A
C243        H250   1.068       .  S
C244        C245   1.416       .  A
C245        C246   1.398   1_545  A
C245        F252   1.348       .  S
C246        C247   1.396   1_565  A
C246        H653   1.084       .  S
C247        C624   1.469   1_545  S
C247        C248   1.397       .  A
C248        F249   1.358       .  S
H251        C648   1.084       .  S
C253        C254   1.405       .  A
C253        C258   1.404       .  A
C253        H260   1.083       .  S
C254        C255   1.402       .  A
C255        C256   1.392       .  A
C255        F262   1.357       .  S
C256        C257   1.403       .  A
C256        H261   1.084       .  S
C257       C1025   1.474       .  S
C257        C258   1.407       .  A
C258       F1063   1.357       .  S
F259       C1062   1.357       .  S
C263        C268   1.391       .  A
C263        C666   1.406   1_545  A
C263        H270   1.083       .  S
C264        C265   1.411       .  A
C264        C665   1.406       .  A
C265        C668   1.403       .  A
C265        F272   1.357       .  S
C266        C267   1.407       .  A
C266        C667   1.403       .  A
C266        H271   1.083       .  S
C267        C268   1.406       .  A
C268        F269   1.354       .  S
C273        C274   1.398       .  A
C273        C278   1.388       .  A
C273        H280   1.081       .  S
C274        C275   1.406       .  A
C275        C276   1.400       .  A
C275        F282   1.357       .  S
C276        C277   1.406       .  A
C276        H281   1.083       .  S
C277        C278   1.408       .  A
C278        F279   1.358       .  S
C283        C284   1.412       .  A
C283        C288   1.418       .  A
C283        H290   1.082       .  S
C284        C285   1.410       .  A
C285        C286   1.383       .  A
C285        F292   1.350       .  S
C286        C287   1.387       .  A
C286        H291   1.084       .  S
C287        C288   1.419       .  A
C288        F289   1.357       .  S
C293        C294   1.409       .  A
C293        C298   1.408       .  A
C293        H300   1.075       .  S
C294        C295   1.411       .  A
C295        C296   1.399       .  A
C295        F302   1.352       .  S
C296        C297   1.404       .  A
C296        H301   1.083       .  S
C297        C298   1.404       .  A
C298        F299   1.357       .  S
C303        C308   1.398       .  A
C303        C706   1.403   1_545  A
C303        H310   1.084       .  S
C304        C305   1.405       .  A
C304        C705   1.403       .  A
C305        C306   1.404       .  A
C305        F312   1.357       .  S
C306        C307   1.410       .  A
C306        H311   1.083       .  S
C307        C710   1.412       .  A
C308        C709   1.412   1_545  A
C308        F309   1.358       .  S
C313        C318   1.396       .  A
C313        C716   1.408   1_545  A
C313        H320   1.083       .  S
C314        C315   1.411       .  A
C314        C715   1.408       .  A
C315        C316   1.396       .  A
C315        F322   1.357       .  S
C316        C317   1.409       .  A
C316        H321   1.084       .  S
C317        C720   1.406       .  A
C318        C719   1.406   1_545  A
C318        F319   1.357       .  S
C323        C328   1.420       .  A
C323       C1128   1.407       .  A
C323        H330   1.083       .  S
C324        C325   1.394       .  A
C324       C1127   1.407       .  A
C325        C326   1.391       .  A
C325        F332   1.359       .  S
C326        C327   1.416       .  A
C326        H331   1.064       .  S
C327       C1132   1.422       .  A
C328       C1131   1.422   1_455  A
C328        F329   1.357       .  S
C333        C338   1.382       .  A
C333       C1138   1.391   1_455  A
C333        H340   1.084       .  S
C334        C335   1.424       .  A
C334       C1137   1.391       .  A
C335        C336   1.421       .  A
C335        F342   1.357       .  S
C336        C337   1.414       .  A
C336        H341   1.083       .  S
C337       C1142   1.411       .  A
C338       C1141   1.411       .  A
C338        F339   1.353       .  S
C343        C344   1.401       .  A
C343        C348   1.393       .  A
C343        H350   1.083       .  S
C344        C345   1.405       .  A
C345        C346   1.397       .  A
C345        F352   1.357       .  S
C346        C347   1.401       .  A
C346        H351   1.083       .  S
C347        C348   1.403       .  A
C348        F349   1.358       .  S
C353        C354   1.402       .  A
C353        C358   1.398       .  A
C353        H360   1.083       .  S
C354        C355   1.403       .  A
C355        C356   1.398       .  A
C355        F362   1.357       .  S
C356        C357   1.408       .  A
C356        H361   1.083       .  S
C357        C447   1.483       .  S
C357        C358   1.410       .  A
C358        F761   1.357       .  S
F359        C760   1.357   1_545  S
C363        C364   1.399       .  A
C363        C368   1.396       .  A
C363        H370   1.083       .  S
C364        C365   1.404       .  A
C365        C366   1.396       .  A
C365        F372   1.357       .  S
C366        C367   1.404       .  A
C366        H371   1.083       .  S
C367        C878   1.477   1_455  S
C367        C368   1.411       .  A
C368       F1173   1.357       .  S
F369       C1172   1.357       .  S
C373        C374   1.403       .  A
C373        C378   1.393       .  A
C373        H380   1.084       .  S
C374        C475   1.465       .  S
C374        C375   1.403       .  A
C375        C376   1.400       .  A
C375        F784   1.357       .  S
C376        C377   1.404       .  A
C376        H381   1.083       .  S
C377        C378   1.401       .  A
C378        F379   1.358       .  S
F382        C777   1.357       .  S
C383        C384   1.403       .  A
C383        C388   1.398       .  A
C383        H390   1.083       .  S
C384        C385   1.402       .  A
C385        C386   1.395       .  A
C385        F392   1.357       .  S
C386        C387   1.403       .  A
C386        H391   1.083       .  S
C387        C863   1.468   1_455  S
C387        C388   1.405       .  A
C388        F389   1.357       .  S
C393        C394   1.399       .  A
C393        C398   1.392       .  A
C393        H400   1.083       .  S
C394        C395   1.402       .  A
C395        C396   1.393       .  A
C395        F402   1.357       .  S
C396        C397   1.404       .  A
C396        H401   1.083       .  S
C397        C398   1.408       .  A
C398        F399   1.357       .  S
O403       Ni409   1.926       .  S
O403        C424   1.271       .  A
O404       Ni427   1.920       .  S
O404        C413   1.275       .  A
O405       Ni409   1.902       .  S
O405       Ni427   1.909       .  S
O405       Ni421   1.916       .  S
O405        H428   0.967       .  S
C406        O423   1.275       .  A
C406        O415   1.273       .  A
C406        C460   1.467       .  S
O407       Ni426   1.911       .  S
O407        C413   1.262       .  A
O408       Ni426   1.906       .  S
O408        C410   1.266       .  A
Ni409       O412   1.914       .  S
Ni409       O414   1.917       .  S
C410        O420   1.266       .  A
C410        C445   1.460       .  S
O411       Ni427   1.931       .  S
O411        C417   1.281       .  A
O412        C417   1.274       .  A
C413        C522   1.466       .  S
O414        C416   1.272       .  A
O415       Ni426   1.917       .  S
C416        O422   1.275       .  A
C416        C488   1.481       .  S
C417        C502   1.460       .  S
H418        O419   0.965       .  S
O419       Ni427   1.925       .  S
O419       Ni421   1.919       .  S
O419       Ni426   1.918       .  S
O420       Ni421   1.922       .  S
Ni421       O425   1.901       .  S
Ni421       O423   1.929       .  S
O422       Ni427   1.946       .  S
C424        O425   1.264       .  A
C424        C473   1.466       .  S
C429        C796   1.477       .  S
C429        C430   1.406       .  A
C429        C434   1.405       .  A
C430        C779   1.480       .  S
C430        C431   1.410       .  A
C431        C756   1.486       .  S
C431        C432   1.416       .  A
C432        C786   1.478       .  S
C432        C433   1.415       .  A
C433        C766   1.482       .  S
C433        C434   1.408       .  A
C434        C746   1.481       .  S
O435       Ni443   1.921       .  S
O435        C445   1.282       .  A
O436       Ni443   1.924       .  S
O436        C446   1.282       .  A
O437       Ni443   1.914       .  S
O437        C447   1.281       .  A
O438       Ni443   1.902       .  S
O438        C448   1.278       .  A
O439       Ni444   1.920       .  S
O439        C448   1.282       .  A
O440       Ni444   1.923       .  S
O440        C447   1.283       .  A
O441       Ni444   1.898       .  S
O441        C446   1.278       .  A
O442       Ni444   1.910       .  S
O442        C445   1.278       .  A
Ni443      Ni444   2.392       .  S
C446        C535   1.459       .  S
C448        C749   1.460       .  S
O449       Ni457   1.920       .  S
O449        C459   1.281       .  A
O450       Ni457   1.911       .  S
O450        C460   1.280       .  A
O451       Ni457   1.910       .  S
O451        C461   1.279       .  A
O452       Ni457   1.905       .  S
O452        C462   1.279       .  A
O453       Ni458   1.910       .  S
O453        C462   1.281       .  A
O454       Ni458   1.920       .  S
O454        C461   1.281       .  A
O455       Ni458   1.932       .  S
O455        C460   1.283       .  A
O456       Ni458   1.925       .  S
O456        C459   1.282       .  A
Ni457      Ni458   2.390       .  S
C459        C538   1.469       .  S
C461       C1593   1.468       .  S
C462        C799   1.468       .  S
O463       Ni471   1.922       .  S
O463        C473   1.283       .  A
O464       Ni471   1.918       .  S
O464        C474   1.282       .  A
O465       Ni471   1.896       .  S
O465        C475   1.276       .  A
O466       Ni471   1.902       .  S
O466        C476   1.278       .  A
O467       Ni472   1.923       .  S
O467        C476   1.284       .  A
O468       Ni472   1.932       .  S
O468        C475   1.284       .  A
O469       Ni472   1.919       .  S
O469        C474   1.279       .  A
O470       Ni472   1.910       .  S
O470        C473   1.279       .  A
Ni471      Ni472   2.391       .  S
C474        C539   1.463       .  S
C476       C1573   1.477       .  S
O477      Ni1289   1.945   1_455  S
O477        C487   1.289       .  A
O478       Ni485   1.953       .  S
O478        C488   1.289       .  A
O479       Ni485   1.911       .  S
O479        C489   1.279       .  A
O480       Ni485   1.896       .  S
O480        C490   1.272       .  A
O481       Ni486   1.939       .  S
O481       C1294   1.292   1_455  A
O482       Ni486   1.943       .  S
O482       C1293   1.286   1_455  A
O483      Ni1290   1.910       .  S
O483        C488   1.276       .  A
O484       Ni486   1.893       .  S
O484        C487   1.272       .  A
Ni485      O1281   1.945       .  S
Ni485     Ni1290   2.388       .  S
Ni486      O1287   1.910   1_455  S
Ni486     Ni1289   2.388   1_455  S
C487        C558   1.464       .  S
C489       O1286   1.286       .  A
C489        C726   1.483       .  S
C490       O1285   1.292       .  A
C490        C736   1.486       .  S
O491        C501   1.280       .  A
O492       Ni499   1.919       .  S
O492        C502   1.279       .  A
O493       Ni499   1.912       .  S
O494       Ni499   1.933       .  S
O495       Ni500   1.912       .  S
O495        C504   1.279       .  A
O496       Ni500   1.909       .  S
O496        C503   1.280       .  A
O497        C502   1.281       .  A
O498       Ni500   1.924       .  S
O498        C501   1.281       .  A
C501        C554   1.465       .  S
C503        C716   1.475       .  S
C504        C706   1.473       .  S
C505        C719   1.470       .  S
C505       C1310   1.437       .  A
C506        C739   1.550       .  S
C506       C1309   1.437       .  A
C506        C507   1.440       .  A
C507        C696   1.559       .  S
C507        C508   1.453       .  A
C508        C709   1.487       .  S
C509        C729   1.570       .  S
C509       C1314   1.447       .  A
C510        C686   1.558       .  S
C510       C1313   1.447   1_455  A
O511       Ni519   1.943       .  S
O511        C521   1.289       .  A
O512       Ni519   1.946       .  S
O512        C522   1.291       .  A
O513       Ni519   1.889       .  S
O513        C523   1.270       .  A
O514       Ni519   1.894       .  S
O514        C524   1.274       .  A
O515       Ni520   1.945       .  S
O515        C524   1.289       .  A
O516       Ni520   1.941       .  S
O516        C523   1.291       .  A
O517       Ni520   1.886       .  S
O517        C522   1.270       .  A
O518       Ni520   1.899       .  S
O518        C521   1.275       .  A
Ni519      Ni520   2.389       .  S
C521        C572   1.474       .  S
C523        C689   1.474       .  S
C524        C699   1.481       .  S
O525       Ni531   1.917   1_556  S
O525        C546   1.268       .  A
O526       Ni549   1.909       .  S
O526        C535   1.265       .  A
O527       Ni531   1.902   1_556  S
O527       Ni951   1.909   1_566  S
O527       Ni543   1.914       .  S
C528        O545   1.276       .  A
C528        O537   1.276       .  A
C528        C622   1.463       .  S
O529       Ni548   1.914   1_554  S
O529        C535   1.267       .  A
O530       Ni548   1.910       .  S
O530        C532   1.267       .  A
Ni531       O536   1.916       .  S
C532        O542   1.270       .  A
C532        C607   1.467       .  S
O533      Ni1353   1.922       .  S
O533        C539   1.277       .  A
O534        C539   1.276       .  A
O536        C538   1.268       .  A
C538        O544   1.267       .  A
H540        O541   0.966       .  S
O541      Ni1347   1.910   1_454  S
O542       Ni945   1.931   1_455  S
Ni543       O944   1.931   1_565  S
Ni543       O547   1.909       .  S
Ni543      O1349   1.923       .  S
Ni543      O1345   1.910   1_556  S
O544       Ni951   1.925   1_565  S
O545      Ni1347   1.923   1_455  S
C546        O547   1.267       .  A
C546        C588   1.461       .  S
Ni549      O1337   1.922   1_455  S
Ni549       O946   1.925   1_455  S
Ni549       O929   1.909   1_454  S
O551       Ni557   1.946       .  S
O551        C572   1.276       .  A
O552       Ni575   1.912       .  S
O552        C561   1.267       .  A
O553       Ni557   1.902       .  S
O553       Ni575   1.918       .  S
O553       Ni569   1.910       .  S
O553        H576   0.967       .  S
C554        O571   1.271       .  A
C554        O563   1.276       .  A
O555       Ni574   1.913       .  S
O555        C561   1.264       .  A
O556       Ni574   1.914       .  S
O556        C558   1.266       .  A
Ni557       O560   1.940       .  S
Ni557       O562   1.915       .  S
C558        O568   1.267       .  A
O559       Ni575   1.914       .  S
O559        C565   1.273       .  A
O560        C565   1.280       .  A
C561        C621   1.460       .  S
O562        C564   1.269       .  A
O563       Ni574   1.928       .  S
C564        O570   1.271       .  A
C564        C587   1.471       .  S
C565        C608   1.469       .  S
H566        O567   0.966       .  S
O567       Ni575   1.913       .  S
O567       Ni569   1.910       .  S
O567       Ni574   1.913       .  S
O568       Ni569   1.918       .  S
Ni569       O573   1.900       .  S
Ni569       O571   1.915       .  S
O570       Ni575   1.934       .  S
C572        O573   1.262       .  A
O577       Ni585   1.920       .  S
O577        C587   1.281       .  A
O578       Ni585   1.906       .  S
O578        C588   1.279       .  A
O579       Ni585   1.928       .  S
O579        C589   1.283       .  A
O580       Ni585   1.926       .  S
O580        C590   1.284       .  A
O581       Ni586   1.893       .  S
O581        C590   1.277       .  A
O582       Ni586   1.902       .  S
O582        C589   1.280       .  A
O583       Ni586   1.921       .  S
O583        C588   1.281       .  A
O584       Ni586   1.926       .  S
O584        C587   1.282       .  A
Ni585      Ni586   2.388       .  S
C589        C666   1.484       .  S
C590        C679   1.473       .  S
C591        C639   1.484       .  S
C591        C592   1.416       .  A
C591        C596   1.443       .  A
C592        C676   1.487       .  S
C592        C593   1.400       .  A
C593        C656   1.487       .  S
C593        C594   1.403       .  A
C594        C626   1.491       .  S
C594        C595   1.429       .  A
C595        C669   1.488       .  S
C595        C596   1.450       .  A
C596        C646   1.560       .  S
O597       Ni605   1.917       .  S
O597        C607   1.279       .  A
O598       Ni605   1.910       .  S
O598        C608   1.278       .  A
O599       Ni605   1.912       .  S
O599        C609   1.280       .  A
O600       Ni605   1.917       .  S
O600        C610   1.282       .  A
O601       Ni606   1.922       .  S
O601        C610   1.281       .  A
O602       Ni606   1.911       .  S
O602        C609   1.278       .  A
O603       Ni606   1.937       .  S
O603        C608   1.284       .  A
O604       Ni606   1.927       .  S
O604        C607   1.283       .  A
Ni605      Ni606   2.391       .  S
C609        C636   1.457       .  S
C610       C1433   1.474   1_455  S
O611       Ni619   1.910       .  S
O611        C621   1.278       .  A
O612       Ni619   1.913       .  S
O612        C622   1.280       .  A
O613       Ni619   1.924       .  S
O613        C623   1.282       .  A
O614       Ni619   1.915       .  S
O614        C624   1.281       .  A
O615       Ni620   1.916       .  S
O615        C624   1.280       .  A
O616       Ni620   1.907       .  S
O616        C623   1.280       .  A
O617       Ni620   1.922       .  S
O617        C622   1.280       .  A
O618       Ni620   1.914       .  S
O618        C621   1.282       .  A
Ni619      Ni620   2.391       .  S
C623       C1463   1.474   1_455  S
C625        C626   1.404       .  A
C625        C630   1.403       .  A
C625        H632   1.083       .  S
C626        C627   1.405       .  A
C627        C628   1.395       .  A
C627        F634   1.356       .  S
C628        C629   1.401       .  A
C628        H633   1.083       .  S
C629       C1414   1.474       .  S
C629        C630   1.408       .  A
C630        F631   1.357       .  S
C635        C636   1.401       .  A
C635        C640   1.398       .  A
C635        H642   1.083       .  S
C636        C637   1.400       .  A
C637        C638   1.391       .  A
C637        F644   1.358       .  S
C638        C639   1.407       .  A
C638        H643   1.082       .  S
C639        C640   1.406       .  A
C640        F641   1.357       .  S
C645        C646   1.418       .  A
C645        C650   1.398       .  A
C645        H652   1.068       .  S
C646        C647   1.416       .  A
C647        C648   1.398       .  A
C647        F654   1.348       .  S
C648        C649   1.396       .  A
C649        C650   1.397       .  A
C650        F651   1.358       .  S
C655        C656   1.405       .  A
C655        C660   1.404       .  A
C655        H662   1.083       .  S
C656        C657   1.402       .  A
C657        C658   1.392       .  A
C657        F664   1.357       .  S
C658        C659   1.403       .  A
C658        H663   1.084       .  S
C659       C1427   1.474       .  S
C659        C660   1.407       .  A
C660       F1465   1.357       .  S
F661       C1464   1.357       .  S
C665        C670   1.391       .  A
C665        H672   1.083       .  S
C666        C667   1.411   1_565  A
C667        F674   1.357   1_545  S
C668        C669   1.407       .  A
C668        H673   1.083       .  S
C669        C670   1.406       .  A
C670        F671   1.354       .  S
C675        C676   1.398       .  A
C675        C680   1.388       .  A
C675        H682   1.081       .  S
C676        C677   1.406       .  A
C677        C678   1.400       .  A
C677        F684   1.357       .  S
C678        C679   1.406       .  A
C678        H683   1.083       .  S
C679        C680   1.408       .  A
C680        F681   1.358       .  S
C685        C686   1.412       .  A
C685        C690   1.418       .  A
C685        H692   1.082       .  S
C686        C687   1.410       .  A
C687        C688   1.383       .  A
C687        F694   1.350       .  S
C688        C689   1.387       .  A
C688        H693   1.084       .  S
C689        C690   1.419       .  A
C690        F691   1.357       .  S
C695        C696   1.409       .  A
C695        C700   1.408       .  A
C695        H702   1.075       .  S
C696        C697   1.411       .  A
C697        C698   1.399       .  A
C697        F704   1.352       .  S
C698        C699   1.404       .  A
C698        H703   1.083       .  S
C699        C700   1.404       .  A
C700        F701   1.357       .  S
C705        C710   1.398       .  A
C705        H712   1.084       .  S
C706        C707   1.405       .  A
C707        C708   1.404       .  A
C707        F714   1.357       .  S
C708        C709   1.410       .  A
C708        H713   1.083       .  S
C710        F711   1.358       .  S
C715        C720   1.396       .  A
C715        H722   1.083       .  S
C716        C717   1.411       .  A
C717        C718   1.396       .  A
C717        F724   1.357       .  S
C718        C719   1.409       .  A
C718        H723   1.084       .  S
C720        F721   1.357       .  S
C725       C1530   1.407       .  A
C725        C730   1.420       .  A
C725        H732   1.083       .  S
C726       C1529   1.407       .  A
C726        C727   1.394       .  A
C727        C728   1.391       .  A
C727        F734   1.359       .  S
C728        C729   1.416       .  A
C728        H733   1.064       .  S
C729       C1534   1.422       .  A
C730       C1533   1.422   1_455  A
C730        F731   1.357       .  S
C735       C1540   1.391   1_455  A
C735        C740   1.382       .  A
C735        H742   1.084       .  S
C736       C1539   1.391       .  A
C736        C737   1.424       .  A
C737        C738   1.421       .  A
C737        F744   1.357       .  S
C738        C739   1.414       .  A
C738        H743   1.083       .  S
C739       C1544   1.411       .  A
C740       C1543   1.411       .  A
C740        F741   1.353       .  S
C745        C746   1.401       .  A
C745        C750   1.393       .  A
C745        H752   1.083       .  S
C746        C747   1.405       .  A
C747        C748   1.397       .  A
C747        F754   1.357       .  S
C748        C749   1.401       .  A
C748        H753   1.083       .  S
C749        C750   1.403       .  A
C750        F751   1.358       .  S
C755        C756   1.402       .  A
C755        C760   1.398       .  A
C755        H762   1.083       .  S
C756        C757   1.403       .  A
C757        C758   1.398       .  A
C757        F764   1.357       .  S
C758        C759   1.408       .  A
C758        H763   1.083       .  S
C759        C760   1.410       .  A
C765        C766   1.399       .  A
C765        C770   1.396       .  A
C765        H772   1.083       .  S
C766        C767   1.404       .  A
C767        C768   1.396       .  A
C767        F774   1.357       .  S
C768        C769   1.404       .  A
C768        H773   1.083       .  S
C769       C1280   1.477   1_455  S
C769        C770   1.411       .  A
C770       F1575   1.357       .  S
F771       C1574   1.357       .  S
C775        C776   1.403       .  A
C775        C780   1.393       .  A
C775        H782   1.084       .  S
C776        C777   1.403       .  A
C777        C778   1.400       .  A
C778        C779   1.404       .  A
C778        H783   1.083       .  S
C779        C780   1.401       .  A
C780        F781   1.358       .  S
C785        C786   1.403       .  A
C785        C790   1.398       .  A
C785        H792   1.083       .  S
C786        C787   1.402       .  A
C787        C788   1.395       .  A
C787        F794   1.357       .  S
C788        C789   1.403       .  A
C788        H793   1.083       .  S
C789       C1265   1.468   1_455  S
C789        C790   1.405       .  A
C790        F791   1.357       .  S
C795        C796   1.399       .  A
C795        C800   1.392       .  A
C795        H802   1.083       .  S
C796        C797   1.402       .  A
C797        C798   1.393       .  A
C797        F804   1.357       .  S
C798        C799   1.404       .  A
C798        H803   1.083       .  S
C799        C800   1.408       .  A
C800        F801   1.357       .  S
O805       Ni811   1.926       .  S
O805        C826   1.271       .  A
O806       Ni829   1.920       .  S
O806        C815   1.275       .  A
O807       Ni811   1.902       .  S
O807       Ni829   1.909       .  S
O807       Ni823   1.916       .  S
O807        H830   0.967       .  S
C808        O825   1.275       .  A
C808        O817   1.273       .  A
C808        C862   1.467       .  S
O809       Ni828   1.911       .  S
O809        C815   1.262       .  A
O810       Ni828   1.906       .  S
O810        C812   1.266       .  A
Ni811       O814   1.914       .  S
Ni811       O816   1.917       .  S
C812        O822   1.266       .  A
C812        C847   1.460       .  S
O813       Ni829   1.931       .  S
O813        C819   1.281       .  A
O814        C819   1.274       .  A
C815        C924   1.466       .  S
O816        C818   1.272       .  A
O817       Ni828   1.917       .  S
C818        O824   1.275       .  A
C818        C890   1.481       .  S
C819        C904   1.460       .  S
H820        O821   0.965       .  S
O821       Ni829   1.925       .  S
O821       Ni823   1.919       .  S
O821       Ni828   1.918       .  S
O822       Ni823   1.922       .  S
Ni823       O827   1.901       .  S
Ni823       O825   1.929       .  S
O824       Ni829   1.946       .  S
C826        O827   1.264       .  A
C826        C875   1.466       .  S
C831       C1198   1.477       .  S
C831        C832   1.406       .  A
C831        C836   1.405       .  A
C832       C1181   1.480       .  S
C832        C833   1.410       .  A
C833       C1158   1.486       .  S
C833        C834   1.416       .  A
C834       C1188   1.478       .  S
C834        C835   1.415       .  A
C835       C1168   1.482       .  S
C835        C836   1.408       .  A
C836       C1148   1.481       .  S
O837       Ni845   1.921       .  S
O837        C847   1.282       .  A
O838       Ni845   1.924       .  S
O838        C848   1.282       .  A
O839       Ni845   1.914       .  S
O839        C849   1.281       .  A
O840       Ni845   1.902       .  S
O840        C850   1.278       .  A
O841       Ni846   1.920       .  S
O841        C850   1.282       .  A
O842       Ni846   1.923       .  S
O842        C849   1.283       .  A
O843       Ni846   1.898       .  S
O843        C848   1.278       .  A
O844       Ni846   1.910       .  S
O844        C847   1.278       .  A
Ni845      Ni846   2.392       .  S
C848        C937   1.459       .  S
C849       C1563   1.483   1_545  S
C850       C1151   1.460       .  S
O851       Ni859   1.920       .  S
O851        C861   1.281       .  A
O852       Ni859   1.911       .  S
O852        C862   1.280       .  A
O853       Ni859   1.910       .  S
O853        C863   1.279       .  A
O854       Ni859   1.905       .  S
O854        C864   1.279       .  A
O855       Ni860   1.910       .  S
O855        C864   1.281       .  A
O856       Ni860   1.920       .  S
O856        C863   1.281       .  A
O857       Ni860   1.932       .  S
O857        C862   1.283       .  A
O858       Ni860   1.925       .  S
O858        C861   1.282       .  A
Ni859      Ni860   2.390       .  S
C861        C940   1.469       .  S
C864       C1201   1.468       .  S
O865       Ni873   1.922       .  S
O865        C875   1.283       .  A
O866       Ni873   1.918       .  S
O866        C876   1.282       .  A
O867       Ni873   1.896       .  S
O867        C877   1.276       .  A
O868       Ni873   1.902       .  S
O868        C878   1.278       .  A
O869       Ni874   1.923       .  S
O869        C878   1.284       .  A
O870       Ni874   1.932       .  S
O870        C877   1.284       .  A
O871       Ni874   1.919       .  S
O871        C876   1.279       .  A
O872       Ni874   1.910       .  S
O872        C875   1.279       .  A
Ni873      Ni874   2.391       .  S
C876        C941   1.463       .  S
C877       C1580   1.465   1_545  S
O879        C889   1.289       .  A
O880       Ni887   1.953       .  S
O880        C890   1.289       .  A
O881       Ni887   1.911       .  S
O881        C891   1.279       .  A
O882       Ni887   1.896       .  S
O882        C892   1.272       .  A
O883       Ni888   1.939       .  S
O884       Ni888   1.943       .  S
O885        C890   1.276       .  A
O886       Ni888   1.893       .  S
O886        C889   1.272       .  A
C889        C960   1.464       .  S
C891       C1128   1.483   1_655  S
C892       C1138   1.486       .  S
O893      Ni1303   1.914       .  S
O893        C903   1.280       .  A
O894       Ni901   1.919       .  S
O894        C904   1.279       .  A
O895       Ni901   1.912       .  S
O895       C1307   1.281   1_545  A
O896       Ni901   1.933       .  S
O896       C1308   1.284   1_545  A
O897       Ni902   1.912       .  S
O897        C906   1.279       .  A
O898       Ni902   1.909       .  S
O898        C905   1.280       .  A
O899      Ni1304   1.916   1_545  S
O899        C904   1.281       .  A
O900       Ni902   1.924       .  S
O900        C903   1.281       .  A
Ni901      O1295   1.914   1_545  S
Ni901     Ni1304   2.391   1_545  S
Ni902      O1301   1.916       .  S
Ni902     Ni1303   2.391       .  S
C903        C956   1.465       .  S
C905       O1297   1.281       .  A
C905       C1118   1.475       .  S
C906       O1298   1.284       .  A
C906       C1108   1.473       .  S
C907       C1121   1.470       .  S
C907       C1314   1.445       .  A
C908       C1141   1.550       .  S
C908        C909   1.440   1_455  A
C909       C1098   1.559       .  S
C909        C910   1.453       .  A
C910       C1111   1.487       .  S
C910       C1313   1.457       .  A
C911       C1131   1.570       .  S
C911       C1312   1.457   1_545  A
C912       C1088   1.558       .  S
C912       C1309   1.445   1_545  A
O913       Ni921   1.943       .  S
O913        C923   1.289       .  A
O914       Ni921   1.946       .  S
O914        C924   1.291       .  A
O915       Ni921   1.889       .  S
O915        C925   1.270       .  A
O916       Ni921   1.894       .  S
O916        C926   1.274       .  A
O917       Ni922   1.945       .  S
O917        C926   1.289       .  A
O918       Ni922   1.941       .  S
O918        C925   1.291       .  A
O919       Ni922   1.886       .  S
O919        C924   1.270       .  A
O920       Ni922   1.899       .  S
O920        C923   1.275       .  A
Ni921      Ni922   2.389       .  S
C923        C974   1.474       .  S
C925       C1091   1.474       .  S
C926       C1101   1.481       .  S
O927       Ni933   1.917   1_556  S
O927        C948   1.268       .  A
O928       Ni951   1.909       .  S
O928        C937   1.265       .  A
O929       Ni933   1.902   1_556  S
O929       Ni945   1.914       .  S
O929       H1354   0.966       .  S
C930        O947   1.276       .  A
C930        O939   1.276       .  A
C930       C1024   1.463       .  S
O931       Ni950   1.914   1_554  S
O931        C937   1.267       .  A
O932       Ni950   1.910       .  S
O932        C934   1.267       .  A
Ni933      O1338   1.922       .  S
Ni933       O938   1.916       .  S
C934        O944   1.270       .  A
C934       C1009   1.467       .  S
O935        C941   1.277       .  A
O936      Ni1335   1.922   1_545  S
O936        C941   1.276       .  A
O938        C940   1.268       .  A
O939      Ni1352   1.921       .  S
C940        O946   1.267       .  A
H942        O943   0.966       .  S
O943      Ni1353   1.916       .  S
O943      Ni1352   1.901   1_554  S
Ni945       O949   1.909       .  S
C948        O949   1.267       .  A
C948        C990   1.461       .  S
Ni950      O1341   1.921   1_545  S
Ni950      O1345   1.901   1_546  S
Ni951      O1345   1.916   1_545  S
H952       O1331   0.966   1_545  S
O953       Ni959   1.946       .  S
O953        C974   1.276       .  A
O954       Ni977   1.912       .  S
O954        C963   1.267       .  A
O955       Ni959   1.902       .  S
O955       Ni977   1.918       .  S
O955       Ni971   1.910       .  S
O955        H978   0.967       .  S
C956        O973   1.271       .  A
C956        O965   1.276       .  A
O957       Ni976   1.913       .  S
O957        C963   1.264       .  A
O958       Ni976   1.914       .  S
O958        C960   1.266       .  A
Ni959       O962   1.940       .  S
Ni959       O964   1.915       .  S
C960        O970   1.267       .  A
O961       Ni977   1.914       .  S
O961        C967   1.273       .  A
O962        C967   1.280       .  A
C963       C1023   1.460       .  S
O964        C966   1.269       .  A
O965       Ni976   1.928       .  S
C966        O972   1.271       .  A
C966        C989   1.471       .  S
C967       C1010   1.469       .  S
H968        O969   0.966       .  S
O969       Ni977   1.913       .  S
O969       Ni971   1.910       .  S
O969       Ni976   1.913       .  S
O970       Ni971   1.918       .  S
Ni971       O975   1.900       .  S
Ni971       O973   1.915       .  S
O972       Ni977   1.934       .  S
C974        O975   1.262       .  A
O979       Ni987   1.920       .  S
O979        C989   1.281       .  A
O980       Ni987   1.906       .  S
O980        C990   1.279       .  A
O981       Ni987   1.928       .  S
O981        C991   1.283       .  A
O982       Ni987   1.926       .  S
O982        C992   1.284       .  A
O983       Ni988   1.893       .  S
O983        C992   1.277       .  A
O984       Ni988   1.902       .  S
O984        C991   1.280       .  A
O985       Ni988   1.921       .  S
O985        C990   1.281       .  A
O986       Ni988   1.926       .  S
O986        C989   1.282       .  A
Ni987      Ni988   2.388       .  S
C991       C1068   1.484       .  S
C992       C1081   1.473       .  S
C993       C1041   1.484       .  S
C993        C994   1.416       .  A
C993        C998   1.443       .  A
C994       C1078   1.487       .  S
C994        C995   1.400       .  A
C995       C1058   1.487       .  S
C995        C996   1.403       .  A
C996       C1028   1.491       .  S
C996        C997   1.429       .  A
C997       C1071   1.488       .  S
C997        C998   1.450       .  A
C998       C1048   1.560       .  S
O999      Ni1007   1.917       .  S
O999       C1009   1.279       .  A
O1000     Ni1007   1.910       .  S
O1000      C1010   1.278       .  A
O1001     Ni1007   1.912       .  S
O1001      C1011   1.280       .  A
O1002     Ni1007   1.917       .  S
O1002      C1012   1.282       .  A
O1003     Ni1008   1.922       .  S
O1003      C1012   1.281       .  A
O1004     Ni1008   1.911       .  S
O1004      C1011   1.278       .  A
O1005     Ni1008   1.937       .  S
O1005      C1010   1.284       .  A
O1006     Ni1008   1.927       .  S
O1006      C1009   1.283       .  A
Ni1007    Ni1008   2.391       .  S
C1011      C1038   1.457       .  S
O1013     Ni1021   1.910       .  S
O1013      C1023   1.278       .  A
O1014     Ni1021   1.913       .  S
O1014      C1024   1.280       .  A
O1015     Ni1021   1.924       .  S
O1015      C1025   1.282       .  A
O1016     Ni1021   1.915       .  S
O1016      C1026   1.281       .  A
O1017     Ni1022   1.916       .  S
O1017      C1026   1.280       .  A
O1018     Ni1022   1.907       .  S
O1018      C1025   1.280       .  A
O1019     Ni1022   1.922       .  S
O1019      C1024   1.280       .  A
O1020     Ni1022   1.914       .  S
O1020      C1023   1.282       .  A
Ni1021    Ni1022   2.391       .  S
C1026      C1453   1.469       .  S
C1027      C1028   1.404       .  A
C1027      C1032   1.403       .  A
C1027      H1034   1.083       .  S
C1028      C1029   1.405       .  A
C1029      C1030   1.395       .  A
C1029      F1036   1.356       .  S
C1030      C1031   1.401       .  A
C1030      H1035   1.083       .  S
C1031      C1032   1.408       .  A
C1032      F1033   1.357       .  S
C1037      C1038   1.401       .  A
C1037      C1042   1.398       .  A
C1037      H1044   1.083       .  S
C1038      C1039   1.400       .  A
C1039      C1040   1.391       .  A
C1039      F1046   1.358       .  S
C1040      C1041   1.407       .  A
C1040      H1045   1.082       .  S
C1041      C1042   1.406       .  A
C1042      F1043   1.357       .  S
C1047      C1048   1.418       .  A
C1047      C1052   1.398       .  A
C1047      H1054   1.068       .  S
C1048      C1049   1.416       .  A
C1049      C1050   1.398   1_545  A
C1049      F1056   1.348       .  S
C1050      C1051   1.396   1_565  A
C1050      H1457   1.084       .  S
C1051      C1428   1.469   1_545  S
C1051      C1052   1.397       .  A
C1052      F1053   1.358       .  S
H1055      C1452   1.084       .  S
C1057      C1058   1.405       .  A
C1057      C1062   1.404       .  A
C1057      H1064   1.083       .  S
C1058      C1059   1.402       .  A
C1059      C1060   1.392       .  A
C1059      F1066   1.357       .  S
C1060      C1061   1.403       .  A
C1060      H1065   1.084       .  S
C1061      C1062   1.407       .  A
C1067      C1470   1.406   1_545  A
C1067      C1072   1.391       .  A
C1067      H1074   1.083       .  S
C1068      C1469   1.406       .  A
C1068      C1069   1.411       .  A
C1069      C1472   1.403       .  A
C1069      F1076   1.357       .  S
C1070      C1471   1.403       .  A
C1070      C1071   1.407       .  A
C1070      H1075   1.083       .  S
C1071      C1072   1.406       .  A
C1072      F1073   1.354       .  S
C1077      C1078   1.398       .  A
C1077      C1082   1.388       .  A
C1077      H1084   1.081       .  S
C1078      C1079   1.406       .  A
C1079      C1080   1.400       .  A
C1079      F1086   1.357       .  S
C1080      C1081   1.406       .  A
C1080      H1085   1.083       .  S
C1081      C1082   1.408       .  A
C1082      F1083   1.358       .  S
C1087      C1088   1.412       .  A
C1087      C1092   1.418       .  A
C1087      H1094   1.082       .  S
C1088      C1089   1.410       .  A
C1089      C1090   1.383       .  A
C1089      F1096   1.350       .  S
C1090      C1091   1.387       .  A
C1090      H1095   1.084       .  S
C1091      C1092   1.419       .  A
C1092      F1093   1.357       .  S
C1097      C1098   1.409       .  A
C1097      C1102   1.408       .  A
C1097      H1104   1.075       .  S
C1098      C1099   1.411       .  A
C1099      C1100   1.399       .  A
C1099      F1106   1.352       .  S
C1100      C1101   1.404       .  A
C1100      H1105   1.083       .  S
C1101      C1102   1.404       .  A
C1102      F1103   1.357       .  S
C1107      C1510   1.403   1_545  A
C1107      C1112   1.398       .  A
C1107      H1114   1.084       .  S
C1108      C1509   1.403       .  A
C1108      C1109   1.405       .  A
C1109      C1110   1.404       .  A
C1109      F1116   1.357       .  S
C1110      C1111   1.410       .  A
C1110      H1115   1.083       .  S
C1111      C1514   1.412       .  A
C1112      C1513   1.412   1_545  A
C1112      F1113   1.358       .  S
C1117      C1520   1.408   1_545  A
C1117      C1122   1.396       .  A
C1117      H1124   1.083       .  S
C1118      C1519   1.408       .  A
C1118      C1119   1.411       .  A
C1119      C1120   1.396       .  A
C1119      F1126   1.357       .  S
C1120      C1121   1.409       .  A
C1120      H1125   1.084       .  S
C1121      C1524   1.406       .  A
C1122      C1523   1.406   1_545  A
C1122      F1123   1.357       .  S
C1127      C1132   1.420       .  A
C1127      H1134   1.083       .  S
C1128      C1129   1.394   1_455  A
C1129      C1130   1.391       .  A
C1129      F1136   1.359       .  S
C1130      C1131   1.416       .  A
C1130      H1135   1.064       .  S
C1132      F1133   1.357       .  S
C1137      C1142   1.382       .  A
C1137      H1144   1.084       .  S
C1138      C1139   1.424       .  A
C1139      C1140   1.421       .  A
C1139      F1146   1.357       .  S
C1140      C1141   1.414   1_655  A
C1140      H1145   1.083       .  S
C1142      F1143   1.353       .  S
C1147      C1148   1.401       .  A
C1147      C1152   1.393       .  A
C1147      H1154   1.083       .  S
C1148      C1149   1.405       .  A
C1149      C1150   1.397       .  A
C1149      F1156   1.357       .  S
C1150      C1151   1.401       .  A
C1150      H1155   1.083       .  S
C1151      C1152   1.403       .  A
C1152      F1153   1.358       .  S
C1157      C1158   1.402       .  A
C1157      C1162   1.398       .  A
C1157      H1164   1.083       .  S
C1158      C1159   1.403       .  A
C1159      C1160   1.398       .  A
C1159      F1166   1.357       .  S
C1160      C1161   1.408       .  A
C1160      H1165   1.083       .  S
C1161      C1251   1.483       .  S
C1161      C1162   1.410       .  A
C1162      F1565   1.357       .  S
F1163      C1564   1.357   1_545  S
C1167      C1168   1.399       .  A
C1167      C1172   1.396       .  A
C1167      H1174   1.083       .  S
C1168      C1169   1.404       .  A
C1169      C1170   1.396       .  A
C1169      F1176   1.357       .  S
C1170      C1171   1.404       .  A
C1170      H1175   1.083       .  S
C1171      C1172   1.411       .  A
C1177      C1178   1.403       .  A
C1177      C1182   1.393       .  A
C1177      H1184   1.084       .  S
C1178      C1279   1.465       .  S
C1178      C1179   1.403       .  A
C1179      C1180   1.400       .  A
C1179      F1588   1.357       .  S
C1180      C1181   1.404       .  A
C1180      H1185   1.083       .  S
C1181      C1182   1.401       .  A
C1182      F1183   1.358       .  S
F1186      C1581   1.357       .  S
C1187      C1188   1.403       .  A
C1187      C1192   1.398       .  A
C1187      H1194   1.083       .  S
C1188      C1189   1.402       .  A
C1189      C1190   1.395       .  A
C1189      F1196   1.357       .  S
C1190      C1191   1.403       .  A
C1190      H1195   1.083       .  S
C1191      C1192   1.405       .  A
C1192      F1193   1.357       .  S
C1197      C1198   1.399       .  A
C1197      C1202   1.392       .  A
C1197      H1204   1.083       .  S
C1198      C1199   1.402       .  A
C1199      C1200   1.393       .  A
C1199      F1206   1.357       .  S
C1200      C1201   1.404       .  A
C1200      H1205   1.083       .  S
C1201      C1202   1.408       .  A
C1202      F1203   1.357       .  S
O1207     Ni1213   1.926       .  S
O1207      C1228   1.271       .  A
O1208     Ni1231   1.920       .  S
O1208      C1217   1.275       .  A
O1209     Ni1213   1.902       .  S
O1209     Ni1231   1.909       .  S
O1209     Ni1225   1.916       .  S
O1209      H1232   0.967       .  S
C1210      O1227   1.275       .  A
C1210      O1219   1.273       .  A
C1210      C1264   1.467       .  S
O1211     Ni1230   1.911       .  S
O1211      C1217   1.262       .  A
O1212     Ni1230   1.906       .  S
O1212      C1214   1.266       .  A
Ni1213     O1216   1.914       .  S
Ni1213     O1218   1.917       .  S
C1214      O1224   1.266       .  A
C1214      C1249   1.460       .  S
O1215     Ni1231   1.931       .  S
O1215      C1221   1.281       .  A
O1216      C1221   1.274       .  A
C1217      C1326   1.466       .  S
O1218      C1220   1.272       .  A
O1219     Ni1230   1.917       .  S
C1220      O1226   1.275       .  A
C1220      C1292   1.481       .  S
C1221      C1306   1.460       .  S
H1222      O1223   0.965       .  S
O1223     Ni1231   1.925       .  S
O1223     Ni1225   1.919       .  S
O1223     Ni1230   1.918       .  S
O1224     Ni1225   1.922       .  S
Ni1225     O1229   1.901       .  S
Ni1225     O1227   1.929       .  S
O1226     Ni1231   1.946       .  S
C1228      O1229   1.264       .  A
C1228      C1277   1.466       .  S
C1233      C1600   1.477       .  S
C1233      C1234   1.406       .  A
C1233      C1238   1.405       .  A
C1234      C1583   1.480       .  S
C1234      C1235   1.410       .  A
C1235      C1560   1.486       .  S
C1235      C1236   1.416       .  A
C1236      C1590   1.478       .  S
C1236      C1237   1.415       .  A
C1237      C1570   1.482       .  S
C1237      C1238   1.408       .  A
C1238      C1550   1.481       .  S
O1239     Ni1247   1.921       .  S
O1239      C1249   1.282       .  A
O1240     Ni1247   1.924       .  S
O1240      C1250   1.282       .  A
O1241     Ni1247   1.914       .  S
O1241      C1251   1.281       .  A
O1242     Ni1247   1.902       .  S
O1242      C1252   1.278       .  A
O1243     Ni1248   1.920       .  S
O1243      C1252   1.282       .  A
O1244     Ni1248   1.923       .  S
O1244      C1251   1.283       .  A
O1245     Ni1248   1.898       .  S
O1245      C1250   1.278       .  A
O1246     Ni1248   1.910       .  S
O1246      C1249   1.278       .  A
Ni1247    Ni1248   2.392       .  S
C1250      C1339   1.459       .  S
C1252      C1553   1.460       .  S
O1253     Ni1261   1.920       .  S
O1253      C1263   1.281       .  A
O1254     Ni1261   1.911       .  S
O1254      C1264   1.280       .  A
O1255     Ni1261   1.910       .  S
O1255      C1265   1.279       .  A
O1256     Ni1261   1.905       .  S
O1256      C1266   1.279       .  A
O1257     Ni1262   1.910       .  S
O1257      C1266   1.281       .  A
O1258     Ni1262   1.920       .  S
O1258      C1265   1.281       .  A
O1259     Ni1262   1.932       .  S
O1259      C1264   1.283       .  A
O1260     Ni1262   1.925       .  S
O1260      C1263   1.282       .  A
Ni1261    Ni1262   2.390       .  S
C1263      C1342   1.469       .  S
C1266      C1603   1.468       .  S
O1267     Ni1275   1.922       .  S
O1267      C1277   1.283       .  A
O1268     Ni1275   1.918       .  S
O1268      C1278   1.282       .  A
O1269     Ni1275   1.896       .  S
O1269      C1279   1.276       .  A
O1270     Ni1275   1.902       .  S
O1270      C1280   1.278       .  A
O1271     Ni1276   1.923       .  S
O1271      C1280   1.284       .  A
O1272     Ni1276   1.932       .  S
O1272      C1279   1.284       .  A
O1273     Ni1276   1.919       .  S
O1273      C1278   1.279       .  A
O1274     Ni1276   1.910       .  S
O1274      C1277   1.279       .  A
Ni1275    Ni1276   2.391       .  S
C1278      C1343   1.463       .  S
O1281      C1291   1.289       .  A
O1282     Ni1289   1.953       .  S
O1282      C1292   1.289       .  A
O1283     Ni1289   1.911       .  S
O1283      C1293   1.279       .  A
O1284     Ni1289   1.896       .  S
O1284      C1294   1.272       .  A
O1285     Ni1290   1.939       .  S
O1286     Ni1290   1.943       .  S
O1287      C1292   1.276       .  A
O1288     Ni1290   1.893       .  S
O1288      C1291   1.272       .  A
C1291      C1362   1.464       .  S
C1293      C1530   1.483   1_655  S
C1294      C1540   1.486       .  S
O1295      C1305   1.280       .  A
O1296     Ni1303   1.919       .  S
O1296      C1306   1.279       .  A
O1297     Ni1303   1.912       .  S
O1298     Ni1303   1.933       .  S
O1299     Ni1304   1.912       .  S
O1299      C1308   1.279       .  A
O1300     Ni1304   1.909       .  S
O1300      C1307   1.280       .  A
O1301      C1306   1.281       .  A
O1302     Ni1304   1.924       .  S
O1302      C1305   1.281       .  A
C1305      C1358   1.465       .  S
C1307      C1520   1.475       .  S
C1308      C1510   1.473       .  S
C1309      C1523   1.470       .  S
C1310      C1543   1.550       .  S
C1310      C1311   1.440   1_455  A
C1311      C1500   1.559       .  S
C1311      C1312   1.453       .  A
C1312      C1513   1.487       .  S
C1313      C1533   1.570       .  S
C1314      C1490   1.558       .  S
O1315     Ni1323   1.943       .  S
O1315      C1325   1.289       .  A
O1316     Ni1323   1.946       .  S
O1316      C1326   1.291       .  A
O1317     Ni1323   1.889       .  S
O1317      C1327   1.270       .  A
O1318     Ni1323   1.894       .  S
O1318      C1328   1.274       .  A
O1319     Ni1324   1.945       .  S
O1319      C1328   1.289       .  A
O1320     Ni1324   1.941       .  S
O1320      C1327   1.291       .  A
O1321     Ni1324   1.886       .  S
O1321      C1326   1.270       .  A
O1322     Ni1324   1.899       .  S
O1322      C1325   1.275       .  A
Ni1323    Ni1324   2.389       .  S
C1325      C1376   1.474       .  S
C1327      C1493   1.474       .  S
C1328      C1503   1.481       .  S
O1329     Ni1335   1.917   1_556  S
O1329      C1350   1.268       .  A
O1330     Ni1353   1.909       .  S
O1330      C1339   1.265       .  A
O1331     Ni1335   1.902   1_556  S
O1331     Ni1347   1.914       .  S
C1332      O1349   1.276       .  A
C1332      O1341   1.276       .  A
C1332      C1426   1.463       .  S
O1333     Ni1352   1.914   1_554  S
O1333      C1339   1.267       .  A
O1334     Ni1352   1.910       .  S
O1334      C1336   1.267       .  A
Ni1335     O1340   1.916       .  S
C1336      O1346   1.270       .  A
C1336      C1411   1.467       .  S
O1337      C1343   1.277       .  A
O1338      C1343   1.276       .  A
O1340      C1342   1.268       .  A
C1342      O1348   1.267       .  A
H1344      O1345   0.966       .  S
Ni1347     O1351   1.909       .  S
C1350      O1351   1.267       .  A
C1350      C1392   1.461       .  S
O1355     Ni1361   1.946       .  S
O1355      C1376   1.276       .  A
O1356     Ni1379   1.912       .  S
O1356      C1365   1.267       .  A
O1357     Ni1361   1.902       .  S
O1357     Ni1379   1.918       .  S
O1357     Ni1373   1.910       .  S
O1357      H1380   0.967       .  S
C1358      O1375   1.271       .  A
C1358      O1367   1.276       .  A
O1359     Ni1378   1.913       .  S
O1359      C1365   1.264       .  A
O1360     Ni1378   1.914       .  S
O1360      C1362   1.266       .  A
Ni1361     O1364   1.940       .  S
Ni1361     O1366   1.915       .  S
C1362      O1372   1.267       .  A
O1363     Ni1379   1.914       .  S
O1363      C1369   1.273       .  A
O1364      C1369   1.280       .  A
C1365      C1425   1.460       .  S
O1366      C1368   1.269       .  A
O1367     Ni1378   1.928       .  S
C1368      O1374   1.271       .  A
C1368      C1391   1.471       .  S
C1369      C1412   1.469       .  S
H1370      O1371   0.966       .  S
O1371     Ni1379   1.913       .  S
O1371     Ni1373   1.910       .  S
O1371     Ni1378   1.913       .  S
O1372     Ni1373   1.918       .  S
Ni1373     O1377   1.900       .  S
Ni1373     O1375   1.915       .  S
O1374     Ni1379   1.934       .  S
C1376      O1377   1.262       .  A
O1381     Ni1389   1.920       .  S
O1381      C1391   1.281       .  A
O1382     Ni1389   1.906       .  S
O1382      C1392   1.279       .  A
O1383     Ni1389   1.928       .  S
O1383      C1393   1.283       .  A
O1384     Ni1389   1.926       .  S
O1384      C1394   1.284       .  A
O1385     Ni1390   1.893       .  S
O1385      C1394   1.277       .  A
O1386     Ni1390   1.902       .  S
O1386      C1393   1.280       .  A
O1387     Ni1390   1.921       .  S
O1387      C1392   1.281       .  A
O1388     Ni1390   1.926       .  S
O1388      C1391   1.282       .  A
Ni1389    Ni1390   2.388       .  S
C1393      C1470   1.484       .  S
C1394      C1483   1.473       .  S
C1395      C1443   1.484       .  S
C1395      C1396   1.416       .  A
C1395      C1400   1.443       .  A
C1396      C1480   1.487       .  S
C1396      C1397   1.400       .  A
C1397      C1460   1.487       .  S
C1397      C1398   1.403       .  A
C1398      C1430   1.491       .  S
C1398      C1399   1.429       .  A
C1399      C1473   1.488       .  S
C1399      C1400   1.450       .  A
C1400      C1450   1.560       .  S
O1401     Ni1409   1.917       .  S
O1401      C1411   1.279       .  A
O1402     Ni1409   1.910       .  S
O1402      C1412   1.278       .  A
O1403     Ni1409   1.912       .  S
O1403      C1413   1.280       .  A
O1404     Ni1409   1.917       .  S
O1404      C1414   1.282       .  A
O1405     Ni1410   1.922       .  S
O1405      C1414   1.281       .  A
O1406     Ni1410   1.911       .  S
O1406      C1413   1.278       .  A
O1407     Ni1410   1.937       .  S
O1407      C1412   1.284       .  A
O1408     Ni1410   1.927       .  S
O1408      C1411   1.283       .  A
Ni1409    Ni1410   2.391       .  S
C1413      C1440   1.457       .  S
O1415     Ni1423   1.910       .  S
O1415      C1425   1.278       .  A
O1416     Ni1423   1.913       .  S
O1416      C1426   1.280       .  A
O1417     Ni1423   1.924       .  S
O1417      C1427   1.282       .  A
O1418     Ni1423   1.915       .  S
O1418      C1428   1.281       .  A
O1419     Ni1424   1.916       .  S
O1419      C1428   1.280       .  A
O1420     Ni1424   1.907       .  S
O1420      C1427   1.280       .  A
O1421     Ni1424   1.922       .  S
O1421      C1426   1.280       .  A
O1422     Ni1424   1.914       .  S
O1422      C1425   1.282       .  A
Ni1423    Ni1424   2.391       .  S
C1429      C1430   1.404       .  A
C1429      C1434   1.403       .  A
C1429      H1436   1.083       .  S
C1430      C1431   1.405       .  A
C1431      C1432   1.395       .  A
C1431      F1438   1.356       .  S
C1432      C1433   1.401       .  A
C1432      H1437   1.083       .  S
C1433      C1434   1.408       .  A
C1434      F1435   1.357       .  S
C1439      C1440   1.401       .  A
C1439      C1444   1.398       .  A
C1439      H1446   1.083       .  S
C1440      C1441   1.400       .  A
C1441      C1442   1.391       .  A
C1441      F1448   1.358       .  S
C1442      C1443   1.407       .  A
C1442      H1447   1.082       .  S
C1443      C1444   1.406       .  A
C1444      F1445   1.357       .  S
C1449      C1450   1.418       .  A
C1449      C1454   1.398       .  A
C1449      H1456   1.068       .  S
C1450      C1451   1.416       .  A
C1451      C1452   1.398       .  A
C1451      F1458   1.348       .  S
C1452      C1453   1.396       .  A
C1453      C1454   1.397       .  A
C1454      F1455   1.358       .  S
C1459      C1460   1.405       .  A
C1459      C1464   1.404       .  A
C1459      H1466   1.083       .  S
C1460      C1461   1.402       .  A
C1461      C1462   1.392       .  A
C1461      F1468   1.357       .  S
C1462      C1463   1.403       .  A
C1462      H1467   1.084       .  S
C1463      C1464   1.407       .  A
C1469      C1474   1.391       .  A
C1469      H1476   1.083       .  S
C1470      C1471   1.411   1_565  A
C1471      F1478   1.357   1_545  S
C1472      C1473   1.407       .  A
C1472      H1477   1.083       .  S
C1473      C1474   1.406       .  A
C1474      F1475   1.354       .  S
C1479      C1480   1.398       .  A
C1479      C1484   1.388       .  A
C1479      H1486   1.081       .  S
C1480      C1481   1.406       .  A
C1481      C1482   1.400       .  A
C1481      F1488   1.357       .  S
C1482      C1483   1.406       .  A
C1482      H1487   1.083       .  S
C1483      C1484   1.408       .  A
C1484      F1485   1.358       .  S
C1489      C1490   1.412       .  A
C1489      C1494   1.418       .  A
C1489      H1496   1.082       .  S
C1490      C1491   1.410       .  A
C1491      C1492   1.383       .  A
C1491      F1498   1.350       .  S
C1492      C1493   1.387       .  A
C1492      H1497   1.084       .  S
C1493      C1494   1.419       .  A
C1494      F1495   1.357       .  S
C1499      C1500   1.409       .  A
C1499      C1504   1.408       .  A
C1499      H1506   1.075       .  S
C1500      C1501   1.411       .  A
C1501      C1502   1.399       .  A
C1501      F1508   1.352       .  S
C1502      C1503   1.404       .  A
C1502      H1507   1.083       .  S
C1503      C1504   1.404       .  A
C1504      F1505   1.357       .  S
C1509      C1514   1.398       .  A
C1509      H1516   1.084       .  S
C1510      C1511   1.405       .  A
C1511      C1512   1.404       .  A
C1511      F1518   1.357       .  S
C1512      C1513   1.410       .  A
C1512      H1517   1.083       .  S
C1514      F1515   1.358       .  S
C1519      C1524   1.396       .  A
C1519      H1526   1.083       .  S
C1520      C1521   1.411       .  A
C1521      C1522   1.396       .  A
C1521      F1528   1.357       .  S
C1522      C1523   1.409       .  A
C1522      H1527   1.084       .  S
C1524      F1525   1.357       .  S
C1529      C1534   1.420       .  A
C1529      H1536   1.083       .  S
C1530      C1531   1.394   1_455  A
C1531      C1532   1.391       .  A
C1531      F1538   1.359       .  S
C1532      C1533   1.416       .  A
C1532      H1537   1.064       .  S
C1534      F1535   1.357       .  S
C1539      C1544   1.382       .  A
C1539      H1546   1.084       .  S
C1540      C1541   1.424       .  A
C1541      C1542   1.421       .  A
C1541      F1548   1.357       .  S
C1542      C1543   1.414   1_655  A
C1542      H1547   1.083       .  S
C1544      F1545   1.353       .  S
C1549      C1550   1.401       .  A
C1549      C1554   1.393       .  A
C1549      H1556   1.083       .  S
C1550      C1551   1.405       .  A
C1551      C1552   1.397       .  A
C1551      F1558   1.357       .  S
C1552      C1553   1.401       .  A
C1552      H1557   1.083       .  S
C1553      C1554   1.403       .  A
C1554      F1555   1.358       .  S
C1559      C1560   1.402       .  A
C1559      C1564   1.398       .  A
C1559      H1566   1.083       .  S
C1560      C1561   1.403       .  A
C1561      C1562   1.398       .  A
C1561      F1568   1.357       .  S
C1562      C1563   1.408       .  A
C1562      H1567   1.083       .  S
C1563      C1564   1.410       .  A
C1569      C1570   1.399       .  A
C1569      C1574   1.396       .  A
C1569      H1576   1.083       .  S
C1570      C1571   1.404       .  A
C1571      C1572   1.396       .  A
C1571      F1578   1.357       .  S
C1572      C1573   1.404       .  A
C1572      H1577   1.083       .  S
C1573      C1574   1.411       .  A
C1579      C1580   1.403       .  A
C1579      C1584   1.393       .  A
C1579      H1586   1.084       .  S
C1580      C1581   1.403       .  A
C1581      C1582   1.400       .  A
C1582      C1583   1.404       .  A
C1582      H1587   1.083       .  S
C1583      C1584   1.401       .  A
C1584      F1585   1.358       .  S
C1589      C1590   1.403       .  A
C1589      C1594   1.398       .  A
C1589      H1596   1.083       .  S
C1590      C1591   1.402       .  A
C1591      C1592   1.395       .  A
C1591      F1598   1.357       .  S
C1592      C1593   1.403       .  A
C1592      H1597   1.083       .  S
C1593      C1594   1.405       .  A
C1594      F1595   1.357       .  S
C1599      C1600   1.399       .  A
C1599      C1604   1.392       .  A
C1599      H1606   1.083       .  S
C1600      C1601   1.402       .  A
C1601      C1602   1.393       .  A
C1601      F1608   1.357       .  S
C1602      C1603   1.404       .  A
C1602      H1607   1.083       .  S
C1603      C1604   1.408       .  A
C1604      F1605   1.357       .  S
