geometry optimzed in LAMMPS
_audit_creation_date              2020-11-30 
_audit_creation_method            'lammps2cif' 
_symmetry_space_group_name_H-M    'P1' 
_symmetry_Int_Tables_number       1 
_symmetry_cell_setting            triclinic 
loop_ 
_symmetry_equiv_pos_as_xyz 
  x,y,z 
_cell_length_a                    38.97500073850774 
_cell_length_b                    38.804487371963596 
_cell_length_c                    26.900189512261925 
_cell_angle_alpha                 90.7015593299603 
_cell_angle_beta                  88.87813877370742 
_cell_angle_gamma                 120.22305382946091 
loop_ 
_atom_site_label 
_atom_site_type_symbol 
_atom_site_fract_x 
_atom_site_fract_y 
_atom_site_fract_z 
_atom_site_charge 
C1          C  0.46548903  0.46708996  0.98051456     0.02280
C2          C  0.46817657  0.00526258  0.97987916     0.02280
C3          C  0.50396263  0.03815324  0.00095287     0.02280
C4          C  0.03777623  0.03484084  0.01533532     0.02280
C5          C  0.03638729  0.49867647  0.00122500     0.02280
C6          C  0.00002627  0.46455732  0.98815856     0.02280
O7          O  0.31676614  0.28735359  0.50071955    -0.72950
O8          O  0.21579312  0.18225775  0.50922019    -0.73930
O9          O  0.26416931  0.23241987  0.43008917    -0.62550
O10         O  0.26877760  0.23635679  0.07870328    -0.70960
O11         O  0.23408903  0.26757950  0.08114514    -0.70510
O12         O  0.23034065  0.26449371  0.43165098    -0.61760
O13         O  0.18213486  0.21420625  0.51067268    -0.74270
O14         O  0.28240566  0.31880107  0.50362192    -0.73050
Cu15       Cu  0.26762934  0.23354132  0.50443227     1.04560
Cu16       Cu  0.23104390  0.26738617  0.50665304     1.04330
C17         C  0.31549357  0.31964146  0.50137558     0.93250
C18         C  0.18286276  0.18183669  0.51350462     0.92390
C19         C  0.24688156  0.24803536  0.40749072     0.84530
C20         C  0.25152054  0.25180707  0.10320161     0.90810
O21         O  0.18085152  0.45816657  0.49592498    -0.72950
O22         O  0.28605102  0.46413532  0.48922113    -0.73930
O23         O  0.23489295  0.46215088  0.06817488    -0.62550
O24         O  0.23264925  0.46201505  0.41815679    -0.70960
O25         O  0.26167689  0.02815860  0.41937429    -0.70510
O26         O  0.26447524  0.02829852  0.06753127    -0.61760
O27         O  0.31483971  0.03003143  0.98896308    -0.74270
O28         O  0.21059278  0.02431703  0.49641896    -0.73050
Cu29       Cu  0.23248806  0.45917469  0.49303493     1.04560
Cu30       Cu  0.26397546  0.02994140  0.49327944     1.04330
C31         C  0.17913433  0.99010624  0.49666205     0.93250
C32         C  0.31728130  0.99843984  0.48684375     0.92390
C33         C  0.24983832  0.99554224  0.09123671     0.84530
C34         C  0.24702621  0.99536721  0.39550253     0.90810
C35         C  0.31136332  0.12289464  0.24754653     0.03130
C36         C  0.35330100  0.14457142  0.24892775    -0.13020
C37         C  0.37475030  0.18670218  0.25185646     0.00630
C38         C  0.35332818  0.20720169  0.25340417    -0.11550
C39         C  0.31137648  0.18653860  0.25223207     0.03120
C40         C  0.29086168  0.14437578  0.24928882    -0.10970
H41         H  0.36937054  0.12852100  0.24771178     0.08710
H42         H  0.36942003  0.23945477  0.25555396     0.06240
H43         H  0.25872923  0.12817410  0.24836322     0.06090
O44         O  0.99946808  0.27773520  0.32800813    -0.72950
O45         O  0.50011447  0.27811315  0.17905445    -0.73930
O46         O  0.43888420  0.24739828  0.25391828    -0.62550
O47         O  0.05997214  0.30728131  0.25267521    -0.70960
O48         O  0.05914600  0.24980907  0.25225544    -0.70510
O49         O  0.43835964  0.19009181  0.25237409    -0.61760
O50         O  0.49960860  0.22057769  0.17778180    -0.74270
O51         O  0.99804116  0.21976687  0.32717032    -0.73050
Cu52       Cu  0.49958967  0.27959805  0.25349948     1.04560
Cu53       Cu  0.99873251  0.21805441  0.25240596     1.04330
C54         C  0.99895359  0.24889683  0.35094496     0.93250
C55         C  0.50018561  0.24958570  0.15510592     0.92390
C56         C  0.41940664  0.20914465  0.25286236     0.84530
C57         C  0.07873291  0.28800695  0.25217507     0.90810
C58         C  0.18682586  0.37343514  0.24714032     0.03130
C59         C  0.14492456  0.35206069  0.24817952    -0.13020
C60         C  0.12330712  0.31006430  0.25133585     0.00630
C61         C  0.14454326  0.28942944  0.25351796    -0.11550
C62         C  0.18654092  0.31006637  0.25281115     0.03120
C63         C  0.20719117  0.35204905  0.24955575    -0.10970
H64         H  0.12902757  0.36823271  0.24649382     0.08710
H65         H  0.12832543  0.25719612  0.25587868     0.06240
H66         H  0.23934983  0.36820380  0.24889638     0.06090
O67         O  0.27942642  0.27876976  0.18117455    -0.72950
O68         O  0.27613851  0.27689844  0.33007417    -0.73930
O69         O  0.30795141  0.24719716  0.25495387    -0.62550
O70         O  0.24698928  0.30721683  0.25552598    -0.70960
O71         O  0.19015878  0.24980720  0.25492005    -0.70510
O72         O  0.25104069  0.18993654  0.25359661    -0.61760
O73         O  0.21917236  0.21923527  0.32946332    -0.74270
O74         O  0.22216245  0.22136173  0.17992786    -0.73050
Cu75       Cu  0.27960390  0.27947590  0.25558063     1.04560
Cu76       Cu  0.21868698  0.21805694  0.25450132     1.04330
C77         C  0.25103902  0.25062669  0.15726897     0.93250
C78         C  0.24723252  0.24805734  0.35316417     0.92390
C79         C  0.28909783  0.20894332  0.25373991     0.84530
C80         C  0.20892223  0.28799326  0.25468271     0.90810
O81         O  0.21974233  0.99730210  0.31856757    -0.72950
O82         O  0.22146004  0.49735562  0.16913586    -0.73930
O83         O  0.19050482  0.43724389  0.24409261    -0.62550
O84         O  0.25102151  0.05854307  0.24455061    -0.70960
O85         O  0.30789672  0.05872547  0.24408645    -0.70510
O86         O  0.24731224  0.43720211  0.24362069    -0.61760
O87         O  0.27841630  0.49725526  0.16875283    -0.74270
O88         O  0.27671037  0.49715811  0.31777313    -0.73050
Cu89       Cu  0.21875572  0.49770342  0.24396389     1.04560
Cu90       Cu  0.27961299  0.49771358  0.24342664     1.04330
C91         C  0.24768906  0.99644365  0.34144021     0.93250
C92         C  0.24983997  0.49658609  0.14555861     0.92390
C93         C  0.20926561  0.41803156  0.24460730     0.84530
C94         C  0.28907161  0.07797008  0.24510761     0.90810
O95         O  0.02883597  0.31724554  0.00371223    -0.72950
O96         O  0.03800901  0.21998893  0.00062495    -0.73930
O97         O  0.03257782  0.26868228  0.42752280    -0.62550
O98         O  0.03337786  0.26823607  0.07700208    -0.70960
O99         O  0.46741944  0.23198604  0.07836259    -0.70510
O100        O  0.46681637  0.23033424  0.42951920    -0.61760
O101        O  0.47215862  0.18295499  0.50434989    -0.74270
O102        O  0.46295904  0.28041869  0.50385747    -0.73050
Cu103      Cu  0.03554170  0.26989640  0.00221246     1.04560
Cu104      Cu  0.46501502  0.23010317  0.50411221     1.04330
C105        C  0.99476018  0.31433480  0.50378715     0.93250
C106        C  0.00634378  0.18610310  0.50222909     0.92390
C107        C  0.99948560  0.24932817  0.40517783     0.84530
C108        C  0.00039639  0.24994653  0.10097506     0.90810
C109        C  0.14689237  0.10830502  0.52595868    -0.12270
C110        C  0.14575110  0.14391307  0.52429023     0.04730
C111        C  0.11109903  0.14288330  0.04342492    -0.07560
C112        C  0.07785470  0.10592794  0.05507300    -0.08300
C113        C  0.07572408  0.07037398  0.53885891    -0.02860
C114        C  0.11308503  0.07277285  0.54153908     0.03960
N115        N  0.11869500  0.04854401  0.07689527     0.66470
H116        H  0.17503953  0.10919144  0.52213434     0.15370
H117        H  0.05411486  0.10558733  0.07607841     0.15080
N118        N  0.10909345  0.17830588  0.05257884     0.74170
O119        O  0.15214622  0.05094309  0.58036575    -0.39280
O120        O  0.09260809  0.03002328  0.11017094    -0.39220
O121        O  0.10781282  0.19792401  0.51636140    -0.39930
O122        O  0.09927912  0.18444790  0.09532152    -0.39990
C123        C  0.40007793  0.42527256  0.02241993    -0.12270
C124        C  0.42596550  0.42925655  0.48284089     0.04730
C125        C  0.41482079  0.39629326  0.45004038    -0.07560
C126        C  0.37892264  0.36097203  0.45841736    -0.08300
C127        C  0.35268279  0.35791826  0.49644157    -0.02860
C128        C  0.36296929  0.39065550  0.02847615     0.03960
N129        N  0.33696149  0.38909621  0.06800781     0.66470
H130        H  0.40850694  0.44987606  0.04814801     0.15370
H131        H  0.37050426  0.33586076  0.43354352     0.15080
N132        N  0.43851902  0.39793733  0.40752138     0.74170
O133        O  0.35075823  0.40164639  0.11072563    -0.39280
O134        O  0.30303990  0.38357396  0.55807973    -0.39220
O135        O  0.43777108  0.36667119  0.89211413    -0.39930
O136        O  0.45547541  0.42876238  0.38099047    -0.39990
C137        C  0.49107553  0.12414190  0.04285315    -0.12270
C138        C  0.00884225  0.14994753  0.50240247     0.04730
C139        C  0.02725964  0.14018878  0.46317952    -0.07560
C140        C  0.02698303  0.10408112  0.46570406    -0.08300
C141        C  0.00751967  0.07737558  0.50491148    -0.02860
C142        C  0.48982336  0.08754168  0.04488229     0.03960
N143        N  0.47031959  0.06120944  0.08650158     0.66470
H144        H  0.47762197  0.13253230  0.07271130     0.15370
H145        H  0.03995431  0.09542064  0.43555621     0.15080
N146        N  0.04422157  0.16490583  0.41963871     0.74170
O147        O  0.44661755  0.06610486  0.11429305    -0.39280
O148        O  0.47851460  0.03473453  0.09790497    -0.39220
O149        O  0.03191527  0.18757907  0.40538049    -0.39930
O150        O  0.06819793  0.16052446  0.39172576    -0.39990
C151        C  0.47766832  0.40035380  0.03054388    -0.12270
C152        C  0.99709921  0.42475062  0.48918563     0.04730
C153        C  0.01573401  0.41228033  0.45305050    -0.07560
C154        C  0.01322820  0.37540329  0.45926521    -0.08300
C155        C  0.99293802  0.35082295  0.49974548    -0.02860
C156        C  0.47484629  0.36321260  0.03613781     0.03960
N157        N  0.45576543  0.34009412  0.08006279     0.66470
H158        H  0.46477447  0.41064526  0.05892969     0.15370
H159        H  0.02728518  0.36549370  0.43199011     0.15080
N160        N  0.03798480  0.43638794  0.41087365     0.74170
O161        O  0.45784082  0.35748278  0.12082476    -0.39280
O162        O  0.43282302  0.30287845  0.57727895    -0.39220
O163        O  0.06412125  0.43098600  0.88969557    -0.39930
O164        O  0.03125393  0.46237596  0.39351145    -0.39990
C165        C  0.07711337  0.47099059  0.03194462    -0.12270
C166        C  0.07274778  0.99553844  0.49757629     0.04730
C167        C  0.10255487  0.01595097  0.46038213    -0.07560
C168        C  0.13623475  0.01181714  0.46045687    -0.08300
C169        C  0.14076537  0.98813420  0.49559330    -0.02860
C170        C  0.11068633  0.46691385  0.03135993     0.03960
N171        N  0.11527501  0.44444347  0.07008539     0.66470
H172        H  0.05475748  0.45606700  0.06078886     0.15370
H173        H  0.15977937  0.02780234  0.43324776     0.15080
N174        N  0.10051352  0.04220403  0.42415026     0.74170
O175        O  0.10655385  0.44823305  0.11449471    -0.39280
O176        O  0.12175165  0.41645882  0.55932611    -0.39220
O177        O  0.13100115  0.06569164  0.89897743    -0.39930
O178        O  0.06849798  0.04159793  0.41565582    -0.39990
C179        C  0.35973864  0.47208179  0.45327716    -0.12270
C180        C  0.35650788  0.00196554  0.47935617     0.04730
C181        C  0.39145987  0.03840138  0.98760749    -0.07560
C182        C  0.42766762  0.04215320  0.97374152    -0.08300
C183        C  0.43175379  0.00880764  0.46358544    -0.02860
C184        C  0.39747385  0.47734717  0.44093763     0.03960
N185        N  0.40147650  0.45809057  0.39722028     0.66470
H186        H  0.33330373  0.44688173  0.43817959     0.15370
H187        H  0.45101111  0.07187366  0.96662748     0.15080
N188        N  0.39097513  0.07218191  0.00895320     0.74170
O189        O  0.37267788  0.42527099  0.38290998    -0.39280
O190        O  0.42951641  0.47832727  0.36687222    -0.39220
O191        O  0.37756637  0.07022305  0.05257701    -0.39930
O192        O  0.40762598  0.10512375  0.98641281    -0.39990
C193        C  0.46549882  0.46710509  0.48051663     0.02280
C194        C  0.46819293  0.00528109  0.47988876     0.02280
C195        C  0.50398298  0.03816791  0.50096022     0.02280
C196        C  0.03779393  0.03484754  0.51533501     0.02280
C197        C  0.03639728  0.49868021  0.50122099     0.02280
C198        C  0.00003270  0.46456514  0.48815510     0.02280
O199        O  0.31675892  0.28733265  0.00071924    -0.72950
O200        O  0.21577928  0.18224206  0.00922053    -0.73930
O201        O  0.26415826  0.23240241  0.93008835    -0.62550
O202        O  0.26878753  0.23637492  0.57870327    -0.70960
O203        O  0.23409236  0.26759076  0.58114520    -0.70510
O204        O  0.23033668  0.26448349  0.93165182    -0.61760
O205        O  0.18212862  0.21419820  0.01067333    -0.74270
O206        O  0.28240402  0.31878595  0.00362293    -0.73050
Cu207      Cu  0.26761861  0.23352288  0.00443194     1.04560
Cu208      Cu  0.23104019  0.26737495  0.00665357     1.04330
C209        C  0.31548997  0.31962246  0.00137675     0.93250
C210        C  0.18285144  0.18182603  0.01350558     0.92390
C211        C  0.24687452  0.24802254  0.90749067     0.84530
C212        C  0.25152636  0.25182084  0.60320168     0.90810
O213        O  0.18084617  0.45817481  0.99592803    -0.72950
O214        O  0.28603849  0.46412892  0.98922005    -0.73930
O215        O  0.23490076  0.46215010  0.56817433    -0.62550
O216        O  0.23263920  0.46201607  0.91815736    -0.70960
O217        O  0.26167366  0.02816029  0.91937471    -0.70510
O218        O  0.26447649  0.02829716  0.56753104    -0.61760
O219        O  0.31484618  0.03003752  0.48896455    -0.74270
O220        O  0.21059352  0.02432585  0.99642119    -0.73050
Cu221      Cu  0.23247877  0.45917555  0.99303572     1.04560
Cu222      Cu  0.26397307  0.02994281  0.99327984     1.04330
C223        C  0.17913299  0.99011677  0.99666596     0.93250
C224        C  0.31727115  0.99843180  0.98684037     0.92390
C225        C  0.24984219  0.99554104  0.59123639     0.84530
C226        C  0.24701992  0.99536873  0.89550296     0.90810
C227        C  0.31136220  0.12289505  0.74753909     0.03130
C228        C  0.35329999  0.14457201  0.74891701    -0.13020
C229        C  0.37474930  0.18670288  0.75184340     0.00630
C230        C  0.35332715  0.20720230  0.75339196    -0.11550
C231        C  0.31137539  0.18653909  0.75222293     0.03120
C232        C  0.29086053  0.14437616  0.74928173    -0.10970
H233        H  0.36936957  0.12852163  0.74770107     0.08710
H234        H  0.36941902  0.23945543  0.75554068     0.06240
H235        H  0.25872800  0.12817436  0.74835888     0.06090
O236        O  0.99945578  0.27772852  0.82800986    -0.72950
O237        O  0.50012395  0.27812165  0.67905572    -0.73930
O238        O  0.43888300  0.24739902  0.75390832    -0.62550
O239        O  0.05997084  0.30728211  0.75268818    -0.70960
O240        O  0.05914451  0.24980976  0.75226369    -0.70510
O241        O  0.43835856  0.19009262  0.75236239    -0.61760
O242        O  0.49961628  0.22058531  0.67777998    -0.74270
O243        O  0.99803017  0.21976088  0.82716854    -0.73050
Cu244      Cu  0.49958837  0.27959890  0.75350107     1.04560
Cu245      Cu  0.99873102  0.21805521  0.75240409     1.04330
C246        C  0.99893795  0.24888786  0.85094511     0.93250
C247        C  0.50019793  0.24959623  0.65510562     0.92390
C248        C  0.41940556  0.20914541  0.75285009     0.84530
C249        C  0.07873153  0.28800765  0.75218720     0.90810
C250        C  0.18682457  0.37343550  0.74714780     0.03130
C251        C  0.14492327  0.35206122  0.74819034    -0.13020
C252        C  0.12330579  0.31006493  0.75134890     0.00630
C253        C  0.14454193  0.28943001  0.75353010    -0.11550
C254        C  0.18653962  0.31006682  0.75282028     0.03120
C255        C  0.20718986  0.35204938  0.74956288    -0.10970
H256        H  0.12902631  0.36823326  0.74650461     0.08710
H257        H  0.12832410  0.25719674  0.75589177     0.06240
H258        H  0.23934852  0.36820399  0.74890074     0.06090
O259        O  0.27942876  0.27877729  0.68117832    -0.72950
O260        O  0.27613414  0.27689191  0.83007772    -0.73930
O261        O  0.30795028  0.24719753  0.75495278    -0.62550
O262        O  0.24698801  0.30721722  0.75553409    -0.70960
O263        O  0.19015765  0.24980758  0.75492199    -0.70510
O264        O  0.25103968  0.18993707  0.75358728    -0.61760
O265        O  0.21916868  0.21922824  0.82945950    -0.74270
O266        O  0.22216439  0.22136993  0.67992410    -0.73050
Cu267      Cu  0.27960279  0.27947634  0.75558452     1.04560
Cu268      Cu  0.21868601  0.21805747  0.75449724     1.04330
C269        C  0.25104205  0.25063669  0.65726903     0.93250
C270        C  0.24722772  0.24804842  0.85316405     0.92390
C271        C  0.28909676  0.20894378  0.75373334     0.84530
C272        C  0.20892100  0.28799366  0.75468916     0.90810
O273        O  0.21973845  0.99730320  0.81856557    -0.72950
O274        O  0.22146153  0.49735489  0.66913351    -0.73930
O275        O  0.19050362  0.43724405  0.74409244    -0.62550
O276        O  0.25102036  0.05854331  0.74454643    -0.70960
O277        O  0.30789555  0.05872572  0.74408538    -0.70510
O278        O  0.24731101  0.43720232  0.74362592    -0.61760
O279        O  0.27841716  0.49725343  0.66875490    -0.74270
O280        O  0.27670696  0.49716030  0.81777552    -0.73050
Cu281      Cu  0.21875452  0.49770358  0.74396152     1.04560
Cu282      Cu  0.27961175  0.49771377  0.74342900     1.04330
C283        C  0.24768461  0.99644537  0.84144048     0.93250
C284        C  0.24984198  0.49658476  0.64555841     0.92390
C285        C  0.20926438  0.41803178  0.74461123     0.84530
C286        C  0.28907046  0.07797036  0.74510362     0.90810
O287        O  0.02884401  0.31725891  0.50370859    -0.72950
O288        O  0.03804314  0.22001679  0.50063043    -0.73930
O289        O  0.03255844  0.26866523  0.92752399    -0.62550
O290        O  0.03339555  0.26825806  0.57700421    -0.70960
O291        O  0.46743785  0.23199358  0.57835964    -0.70510
O292        O  0.46679641  0.23032490  0.92951888    -0.61760
O293        O  0.47212475  0.18293816  0.00435380    -0.74270
O294        O  0.46294987  0.28041471  0.00385885    -0.73050
Cu295      Cu  0.03556167  0.26991705  0.50221317     1.04560
Cu296      Cu  0.46499438  0.23009397  0.00411407     1.04330
C297        C  0.99475500  0.31432811  0.00379110     0.93250
C298        C  0.00630550  0.18607878  0.00222877     0.92390
C299        C  0.99946644  0.24931598  0.90517821     0.84530
C300        C  0.00041326  0.24996037  0.60097466     0.90810
C301        C  0.14687528  0.10829726  0.02599308    -0.12270
C302        C  0.14573655  0.14390576  0.02429317     0.04730
C303        C  0.11111744  0.14288412  0.54344990    -0.07560
C304        C  0.07787678  0.10592463  0.55509492    -0.08300
C305        C  0.07570228  0.07037185  0.03886151    -0.02860
C306        C  0.11306104  0.07276836  0.04156831     0.03960
N307        N  0.11873384  0.04855419  0.57685943     0.66470
H308        H  0.17502257  0.10918138  0.02219215     0.15370
H309        H  0.05413910  0.10557538  0.57611584     0.15080
N310        N  0.10911322  0.17830379  0.55263592     0.74170
O311        O  0.15210460  0.05092966  0.08042196    -0.39280
O312        O  0.09266013  0.03003828  0.61015062    -0.39220
O313        O  0.10780415  0.19791663  0.01628585    -0.39930
O314        O  0.09930946  0.18443327  0.59539166    -0.39990
C315        C  0.40008377  0.42529185  0.52241721    -0.12270
C316        C  0.42595949  0.42923841  0.98284308     0.04730
C317        C  0.41481845  0.39627435  0.95004535    -0.07560
C318        C  0.37892227  0.36095135  0.95842392    -0.08300
C319        C  0.35268075  0.35789759  0.99644596    -0.02860
C320        C  0.36297364  0.39067596  0.52847315     0.03960
N321        N  0.33696752  0.38911709  0.56800694     0.66470
H322        H  0.40851484  0.44989469  0.54814696     0.15370
H323        H  0.37050567  0.33583971  0.93355135     0.15080
N324        N  0.43851731  0.39792070  0.90752587     0.74170
O325        O  0.35076695  0.40167291  0.61072228    -0.39280
O326        O  0.30303758  0.38356139  0.05807669    -0.39220
O327        O  0.43777097  0.36668651  0.39211142    -0.39930
O328        O  0.45547496  0.42874758  0.88099814    -0.39990
C329        C  0.49112685  0.12417570  0.54286421    -0.12270
C330        C  0.00879658  0.14991944  0.00239896     0.04730
C331        C  0.02722520  0.14016996  0.96318224    -0.07560
C332        C  0.02695763  0.10406736  0.96570467    -0.08300
C333        C  0.00748875  0.07735557  0.00490512    -0.02860
C334        C  0.48986665  0.08757170  0.54489460     0.03960
N335        N  0.47036230  0.06124333  0.58651724     0.66470
H336        H  0.47768103  0.13257229  0.57272529     0.15370
H337        H  0.03993873  0.09541542  0.93555933     0.15080
N338        N  0.04418701  0.16489203  0.91964710     0.74170
O339        O  0.44667124  0.06615045  0.61431572    -0.39280
O340        O  0.47854246  0.03475638  0.59791263    -0.39220
O341        O  0.03183364  0.18751721  0.90535247    -0.39930
O342        O  0.06820509  0.16055094  0.89176733    -0.39990
C343        C  0.47766858  0.40035852  0.53053677    -0.12270
C344        C  0.99709919  0.42474607  0.98919316     0.04730
C345        C  0.01573707  0.41227777  0.95306013    -0.07560
C346        C  0.01323233  0.37540132  0.95927522    -0.08300
C347        C  0.99293942  0.35081969  0.99975337    -0.02860
C348        C  0.47484693  0.36321727  0.53613125     0.03960
N349        N  0.45576879  0.34010024  0.58005817     0.66470
H350        H  0.46477629  0.41065088  0.55892352     0.15370
H351        H  0.02729047  0.36549245  0.93200090     0.15080
N352        N  0.03798954  0.43638661  0.91088499     0.74170
O353        O  0.45784168  0.35749012  0.62081835    -0.39280
O354        O  0.43281324  0.30287364  0.07727951    -0.39220
O355        O  0.06411260  0.43098380  0.38967936    -0.39930
O356        O  0.03125614  0.46237185  0.89351917    -0.39990
C357        C  0.07711661  0.47098652  0.53193975    -0.12270
C358        C  0.07274231  0.99554241  0.99758337     0.04730
C359        C  0.10255146  0.01596200  0.96039392    -0.07560
C360        C  0.13623475  0.01183398  0.96046975    -0.08300
C361        C  0.14076565  0.98814822  0.99560164    -0.02860
C362        C  0.11068725  0.46690536  0.53135521     0.03960
N363        N  0.11527528  0.44443700  0.57008417     0.66470
H364        H  0.05476135  0.45606721  0.56078590     0.15370
H365        H  0.15978009  0.02782338  0.93326291     0.15080
N366        N  0.10050736  0.04221475  0.92416434     0.74170
O367        O  0.10654771  0.44822413  0.61449135    -0.39280
O368        O  0.12174191  0.41645979  0.05932259    -0.39220
O369        O  0.13100500  0.06566935  0.39895168    -0.39930
O370        O  0.06848681  0.04159486  0.91565764    -0.39990
C371        C  0.35971724  0.47205447  0.95329034    -0.12270
C372        C  0.35649549  0.00195288  0.97934557     0.04730
C373        C  0.39146822  0.03840956  0.48765196    -0.07560
C374        C  0.42768094  0.04217053  0.47379194    -0.08300
C375        C  0.43173517  0.00878304  0.96356819    -0.02860
C376        C  0.39744847  0.47731270  0.94094363     0.03960
N377        N  0.40143889  0.45804301  0.89723155     0.66470
H378        H  0.33327722  0.44684706  0.93821267     0.15370
H379        H  0.45102024  0.07189328  0.46669236     0.15080
N380        N  0.39097456  0.07217778  0.50902479     0.74170
O381        O  0.37263635  0.42521850  0.88294105    -0.39280
O382        O  0.42946839  0.47827155  0.86686723    -0.39220
O383        O  0.37753875  0.07018984  0.55263929    -0.39930
O384        O  0.40764245  0.10513565  0.48652075    -0.39990
C385        C  0.46548908  0.96709007  0.98051433     0.02280
C386        C  0.46817636  0.50526239  0.97987920     0.02280
C387        C  0.50396230  0.53815314  0.00095299     0.02280
C388        C  0.03777618  0.53484084  0.01533534     0.02280
C389        C  0.03638735  0.99867648  0.00122498     0.02280
C390        C  0.00002635  0.96455733  0.98815852     0.02280
O391        O  0.31676619  0.78735361  0.50071960    -0.72950
O392        O  0.21579318  0.68225769  0.50922034    -0.73930
O393        O  0.26416934  0.73241982  0.43008926    -0.62550
O394        O  0.26877770  0.73635688  0.07870336    -0.70960
O395        O  0.23408907  0.76757953  0.08114521    -0.70510
O396        O  0.23034068  0.76449366  0.43165108    -0.61760
O397        O  0.18213495  0.71420621  0.51067279    -0.74270
O398        O  0.28240568  0.81880107  0.50362199    -0.73050
Cu399      Cu  0.26762940  0.73354130  0.50443237     1.04560
Cu400      Cu  0.23104395  0.76738614  0.50665313     1.04330
C401        C  0.31549360  0.81964147  0.50137563     0.93250
C402        C  0.18286283  0.68183665  0.51350478     0.92390
C403        C  0.24688158  0.74803531  0.40749080     0.84530
C404        C  0.25152061  0.75180713  0.10320169     0.90810
O405        O  0.18085152  0.95816647  0.49592502    -0.72950
O406        O  0.28605108  0.96413537  0.48922118    -0.73930
O407        O  0.23489311  0.96215099  0.06817492    -0.62550
O408        O  0.23264929  0.96201503  0.41815684    -0.70960
O409        O  0.26167693  0.52815863  0.41937423    -0.70510
O410        O  0.26447512  0.52829841  0.06753119    -0.61760
O411        O  0.31483955  0.53003123  0.98896303    -0.74270
O412        O  0.21059285  0.52431714  0.49641888    -0.73050
Cu413      Cu  0.23248810  0.95917467  0.49303498     1.04560
Cu414      Cu  0.26397548  0.52994143  0.49327938     1.04330
C415        C  0.17913437  0.49010638  0.49666199     0.93250
C416        C  0.31728125  0.49843978  0.48684369     0.92390
C417        C  0.24983819  0.49554215  0.09123666     0.84530
C418        C  0.24702620  0.49536723  0.39550247     0.90810
C419        C  0.31136329  0.62289461  0.24754651     0.03130
C420        C  0.35330096  0.64457138  0.24892778    -0.13020
C421        C  0.37475027  0.68670214  0.25185653     0.00630
C422        C  0.35332815  0.70720165  0.25340425    -0.11550
C423        C  0.31137645  0.68653857  0.25223211     0.03120
C424        C  0.29086165  0.64437576  0.24928881    -0.10970
H425        H  0.36937050  0.62852096  0.24771179     0.08710
H426        H  0.36942000  0.73945474  0.25555408     0.06240
H427        H  0.25872921  0.62817409  0.24836318     0.06090
O428        O  0.99946811  0.77773521  0.32800817    -0.72950
O429        O  0.50011437  0.77811307  0.17905455    -0.73930
O430        O  0.43888417  0.74739824  0.25391839    -0.62550
O431        O  0.05997219  0.80728132  0.25267525    -0.70960
O432        O  0.05914605  0.74980909  0.25225550    -0.70510
O433        O  0.43835959  0.69009177  0.25237420    -0.61760
O434        O  0.49960851  0.72057761  0.17778189    -0.74270
O435        O  0.99804119  0.71976688  0.32717037    -0.73050
Cu436      Cu  0.49958963  0.77959800  0.25349957     1.04560
Cu437      Cu  0.99873256  0.71805442  0.25240601     1.04330
C438        C  0.99895361  0.74889684  0.35094500     0.93250
C439        C  0.50018547  0.74958560  0.15510601     0.92390
C440        C  0.41940660  0.70914461  0.25286246     0.84530
C441        C  0.07873295  0.78800697  0.25217512     0.90810
C442        C  0.18682591  0.87343517  0.24714036     0.03130
C443        C  0.14492461  0.85206071  0.24817956    -0.13020
C444        C  0.12330717  0.81006432  0.25133591     0.00630
C445        C  0.14454331  0.78942947  0.25351804    -0.11550
C446        C  0.18654096  0.81006640  0.25281123     0.03120
C447        C  0.20719121  0.85204907  0.24955581    -0.10970
H448        H  0.12902762  0.86823273  0.24649384     0.08710
H449        H  0.12832548  0.75719615  0.25587877     0.06240
H450        H  0.23934987  0.86820382  0.24889645     0.06090
O451        O  0.27942646  0.77876979  0.18117465    -0.72950
O452        O  0.27613853  0.77689841  0.33007427    -0.73930
O453        O  0.30795141  0.74719715  0.25495395    -0.62550
O454        O  0.24698932  0.80721685  0.25552609    -0.70960
O455        O  0.19015881  0.74980722  0.25492014    -0.70510
O456        O  0.25104069  0.68993653  0.25359666    -0.61760
O457        O  0.21917237  0.71923525  0.32946340    -0.74270
O458        O  0.22216249  0.72136177  0.17992793    -0.73050
Cu459      Cu  0.27960393  0.77947590  0.25558073     1.04560
Cu460      Cu  0.21868699  0.71805695  0.25450139     1.04330
C461        C  0.25103907  0.75062673  0.15726906     0.93250
C462        C  0.24723254  0.74805730  0.35316425     0.92390
C463        C  0.28909782  0.70894330  0.25373997     0.84530
C464        C  0.20892227  0.78799328  0.25468281     0.90810
O465        O  0.21974230  0.49730209  0.31856752    -0.72950
O466        O  0.22146013  0.99735567  0.16913590    -0.73930
O467        O  0.19050487  0.93724391  0.24409263    -0.62550
O468        O  0.25102146  0.55854305  0.24455055    -0.70960
O469        O  0.30789668  0.55872544  0.24408637    -0.70510
O470        O  0.24731230  0.93720214  0.24362074    -0.61760
O471        O  0.27841639  0.99725532  0.16875290    -0.74270
O472        O  0.27671039  0.99715812  0.31777319    -0.73050
Cu473      Cu  0.21875577  0.99770344  0.24396393     1.04560
Cu474      Cu  0.27961304  0.99771361  0.24342671     1.04330
C475        C  0.24768904  0.49644366  0.34144016     0.93250
C476        C  0.24984007  0.99658616  0.14555866     0.92390
C477        C  0.20926566  0.91803158  0.24460733     0.84530
C478        C  0.28907157  0.57797005  0.24510755     0.90810
O479        O  0.02883600  0.81724554  0.00371233    -0.72950
O480        O  0.03800901  0.71998892  0.00062497    -0.73930
O481        O  0.03257782  0.76868227  0.42752284    -0.62550
O482        O  0.03337788  0.76823604  0.07700213    -0.70960
O483        O  0.46741919  0.73198601  0.07836273    -0.70510
O484        O  0.46681630  0.73033425  0.42951930    -0.61760
O485        O  0.47215837  0.68295494  0.50435009    -0.74270
O486        O  0.46295913  0.78041880  0.50385755    -0.73050
Cu487      Cu  0.03554172  0.76989640  0.00221251     1.04560
Cu488      Cu  0.46501496  0.73010322  0.50411234     1.04330
C489        C  0.99476021  0.81433482  0.50378718     0.93250
C490        C  0.00634371  0.68610307  0.50222914     0.92390
C491        C  0.99948560  0.74932817  0.40517787     0.84530
C492        C  0.00039641  0.74994651  0.10097511     0.90810
C493        C  0.14689239  0.60830500  0.52595936    -0.12270
C494        C  0.14575114  0.64391305  0.52429045     0.04730
C495        C  0.11109906  0.64288332  0.04342477    -0.07560
C496        C  0.07785471  0.60592800  0.05507286    -0.08300
C497        C  0.07572401  0.57037404  0.53885912    -0.02860
C498        C  0.11308492  0.57277286  0.54153963     0.03960
N499        N  0.11869480  0.54854384  0.07689535     0.66470
H500        H  0.17503955  0.60919139  0.52213536     0.15370
H501        H  0.05411490  0.60558744  0.07607826     0.15080
N502        N  0.10909346  0.67830591  0.05257844     0.74170
O503        O  0.15214582  0.55094283  0.58036651    -0.39280
O504        O  0.09260781  0.53002306  0.11017090    -0.39220
O505        O  0.10781292  0.69792397  0.51636048    -0.39930
O506        O  0.09927904  0.68444803  0.09532102    -0.39990
C507        C  0.40007795  0.92527273  0.02241973    -0.12270
C508        C  0.42596551  0.92925660  0.48284082     0.04730
C509        C  0.41482077  0.89629329  0.45004033    -0.07560
C510        C  0.37892264  0.86097205  0.45841735    -0.08300
C511        C  0.35268281  0.85791829  0.49644158    -0.02860
C512        C  0.36296933  0.89065566  0.02847606     0.03960
N513        N  0.33696162  0.88909636  0.06800785     0.66470
H514        H  0.40850701  0.94987624  0.04814782     0.15370
H515        H  0.37050426  0.83586077  0.43354353     0.15080
N516        N  0.43851898  0.89793733  0.40752131     0.74170
O517        O  0.35075848  0.90164665  0.11072559    -0.39280
O518        O  0.30303991  0.88357396  0.55807975    -0.39220
O519        O  0.43777095  0.86667128  0.89211392    -0.39930
O520        O  0.45547519  0.92876229  0.38099023    -0.39990
C521        C  0.49107460  0.62414145  0.04285300    -0.12270
C522        C  0.00884212  0.64994747  0.50240253     0.04730
C523        C  0.02725952  0.64018874  0.46317960    -0.07560
C524        C  0.02698293  0.60408108  0.46570414    -0.08300
C525        C  0.00751956  0.57737554  0.50491156    -0.02860
C526        C  0.48982252  0.58754128  0.04488215     0.03960
N527        N  0.47031877  0.56120901  0.08650141     0.66470
H528        H  0.47762093  0.63253177  0.07271108     0.15370
H529        H  0.03995423  0.59542062  0.43555628     0.15080
N530        N  0.04422146  0.66490581  0.41963882     0.74170
O531        O  0.44661651  0.56610423  0.11429271    -0.39280
O532        O  0.47851407  0.53473435  0.09790504    -0.39220
O533        O  0.03191490  0.68757876  0.40538036    -0.39930
O534        O  0.06819809  0.66052467  0.39172609    -0.39990
C535        C  0.47766821  0.90035380  0.03054364    -0.12270
C536        C  0.99709918  0.92475059  0.48918550     0.04730
C537        C  0.01573396  0.91228027  0.45305038    -0.07560
C538        C  0.01322820  0.87540326  0.45926516    -0.08300
C539        C  0.99293806  0.85082296  0.49974548    -0.02860
C540        C  0.47484620  0.86321262  0.03613773     0.03960
N541        N  0.45576533  0.84009423  0.08006277     0.66470
H542        H  0.46477440  0.91064534  0.05892941     0.15370
H543        H  0.02728517  0.86549365  0.43199008     0.15080
N544        N  0.03798469  0.93638783  0.41087347     0.74170
O545        O  0.45784067  0.85748297  0.12082465    -0.39280
O546        O  0.43282411  0.80287872  0.57727994    -0.39220
O547        O  0.06412140  0.93098601  0.88969570    -0.39930
O548        O  0.03125380  0.96237583  0.39351126    -0.39990
C549        C  0.07711347  0.97099069  0.03194476    -0.12270
C550        C  0.07274781  0.49553855  0.49757644     0.04730
C551        C  0.10255494  0.51595123  0.46038238    -0.07560
C552        C  0.13623484  0.51181746  0.46045705    -0.08300
C553        C  0.14076544  0.48813438  0.49559330    -0.02860
C554        C  0.11068647  0.96691401  0.03136018     0.03960
N555        N  0.11527524  0.94444387  0.07008589     0.66470
H556        H  0.05475759  0.95606716  0.06078903     0.15370
H557        H  0.15977949  0.52780278  0.43324801     0.15080
N558        N  0.10051360  0.54220442  0.42415069     0.74170
O559        O  0.10655386  0.94823344  0.11449511    -0.39280
O560        O  0.12175202  0.91645915  0.55932669    -0.39220
O561        O  0.13100119  0.56569199  0.89897780    -0.39930
O562        O  0.06849795  0.54159802  0.41565595    -0.39990
C563        C  0.35973875  0.97208197  0.45327711    -0.12270
C564        C  0.35650782  0.50196546  0.47935606     0.04730
C565        C  0.39145970  0.53840122  0.98760681    -0.07560
C566        C  0.42766739  0.54215295  0.97374072    -0.08300
C567        C  0.43175369  0.50880751  0.46358527    -0.02860
C568        C  0.39747398  0.97734738  0.44093764     0.03960
N569        N  0.40147671  0.95809086  0.39722026     0.66470
H570        H  0.33330387  0.94688196  0.43817939     0.15370
H571        H  0.45101088  0.57187337  0.96662639     0.15080
N572        N  0.39097506  0.57218192  0.00895213     0.74170
O573        O  0.37267811  0.92527130  0.38290984    -0.39280
O574        O  0.42951668  0.97832761  0.36687228    -0.39220
O575        O  0.37756664  0.57022344  0.05257606    -0.39930
O576        O  0.40762573  0.60512356  0.98641129    -0.39990
C577        C  0.46549884  0.96710512  0.48051655     0.02280
C578        C  0.46819284  0.50528102  0.47988874     0.02280
C579        C  0.50398282  0.53816786  0.50096029     0.02280
C580        C  0.03779389  0.53484757  0.51533519     0.02280
C581        C  0.03639728  0.99868016  0.50122080     0.02280
C582        C  0.00003269  0.96456511  0.48815494     0.02280
O583        O  0.31675898  0.78733278  0.00071929    -0.72950
O584        O  0.21577938  0.68224207  0.00922065    -0.73930
O585        O  0.26415833  0.73240245  0.93008843    -0.62550
O586        O  0.26878761  0.73637492  0.57870337    -0.70960
O587        O  0.23409242  0.76759075  0.58114528    -0.70510
O588        O  0.23033671  0.76448349  0.93165190    -0.61760
O589        O  0.18212871  0.71419819  0.01067341    -0.74270
O590        O  0.28240402  0.81878601  0.00362298    -0.73050
Cu591      Cu  0.26761869  0.73352294  0.00443202     1.04560
Cu592      Cu  0.23104023  0.76737496  0.00665364     1.04330
C593        C  0.31548999  0.81962257  0.00137677     0.93250
C594        C  0.18285153  0.68182602  0.01350567     0.92390
C595        C  0.24687457  0.74802255  0.90749075     0.84530
C596        C  0.25152643  0.75182084  0.60320176     0.90810
O597        O  0.18084631  0.95817488  0.99592808    -0.72950
O598        O  0.28603869  0.96412912  0.98922008    -0.73930
O599        O  0.23490080  0.96215008  0.56817439    -0.62550
O600        O  0.23263936  0.96201621  0.91815742    -0.70960
O601        O  0.26167356  0.52816015  0.91937464    -0.70510
O602        O  0.26447650  0.52829718  0.56753098    -0.61760
O603        O  0.31484616  0.53003747  0.48896450    -0.74270
O604        O  0.21059343  0.52432577  0.99642107    -0.73050
Cu605      Cu  0.23247894  0.95917568  0.99303576     1.04560
Cu606      Cu  0.26397295  0.52994268  0.99327977     1.04330
C607        C  0.17913288  0.49011671  0.99666583     0.93250
C608        C  0.31727097  0.49843158  0.98684031     0.92390
C609        C  0.24984217  0.49554105  0.59123633     0.84530
C610        C  0.24701979  0.49536859  0.89550290     0.90810
C611        C  0.31136215  0.62289498  0.74753910     0.03130
C612        C  0.35329994  0.64457194  0.74891700    -0.13020
C613        C  0.37474925  0.68670281  0.75184339     0.00630
C614        C  0.35332712  0.70720224  0.75339197    -0.11550
C615        C  0.31137536  0.68653904  0.75222298     0.03120
C616        C  0.29086049  0.64437611  0.74928177    -0.10970
H617        H  0.36936951  0.62852156  0.74770104     0.08710
H618        H  0.36941899  0.73945537  0.75554070     0.06240
H619        H  0.25872796  0.62817432  0.74835894     0.06090
O620        O  0.99945585  0.77772857  0.82800990    -0.72950
O621        O  0.50012395  0.77812159  0.67905581    -0.73930
O622        O  0.43888295  0.74739894  0.75390832    -0.62550
O623        O  0.05997092  0.80728216  0.75268823    -0.70960
O624        O  0.05914461  0.74980982  0.75226375    -0.70510
O625        O  0.43835851  0.69009254  0.75236240    -0.61760
O626        O  0.49961631  0.72058527  0.67778008    -0.74270
O627        O  0.99803024  0.71976093  0.82716859    -0.73050
Cu628      Cu  0.49958831  0.77959883  0.75350115     1.04560
Cu629      Cu  0.99873111  0.71805526  0.75240413     1.04330
C630        C  0.99893800  0.74888790  0.85094515     0.93250
C631        C  0.50019794  0.74959618  0.65510571     0.92390
C632        C  0.41940551  0.70914534  0.75285008     0.84530
C633        C  0.07873161  0.78800771  0.75218727     0.90810
C634        C  0.18682466  0.87343556  0.74714792     0.03130
C635        C  0.14492336  0.85206128  0.74819044    -0.13020
C636        C  0.12330588  0.81006500  0.75134899     0.00630
C637        C  0.14454202  0.78943007  0.75353018    -0.11550
C638        C  0.18653971  0.81006688  0.75282037     0.03120
C639        C  0.20718995  0.85204944  0.74956299    -0.10970
H640        H  0.12902640  0.86823332  0.74650472     0.08710
H641        H  0.12832418  0.75719680  0.75589184     0.06240
H642        H  0.23934861  0.86820405  0.74890085     0.06090
O643        O  0.27942881  0.77877729  0.68117841    -0.72950
O644        O  0.27613419  0.77689191  0.83007780    -0.73930
O645        O  0.30795029  0.74719750  0.75495285    -0.62550
O646        O  0.24698809  0.80721726  0.75553418    -0.70960
O647        O  0.19015771  0.74980763  0.75492207    -0.70510
O648        O  0.25103967  0.68993705  0.75358735    -0.61760
O649        O  0.21916871  0.71922825  0.82945958    -0.74270
O650        O  0.22216443  0.72136995  0.67992419    -0.73050
Cu651      Cu  0.27960284  0.77947634  0.75558460     1.04560
Cu652      Cu  0.21868604  0.71805749  0.75449732     1.04330
C653        C  0.25104210  0.75063670  0.65726911     0.93250
C654        C  0.24722777  0.74804843  0.85316413     0.92390
C655        C  0.28909675  0.70894374  0.75373341     0.84530
C656        C  0.20892107  0.78799370  0.75468925     0.90810
O657        O  0.21973835  0.49730309  0.81856550    -0.72950
O658        O  0.22146157  0.99735490  0.66913357    -0.73930
O659        O  0.19050370  0.93724411  0.74409255    -0.62550
O660        O  0.25102030  0.55854325  0.74454642    -0.70960
O661        O  0.30789548  0.55872566  0.74408538    -0.70510
O662        O  0.24731110  0.93720239  0.74362602    -0.61760
O663        O  0.27841721  0.99725345  0.66875495    -0.74270
O664        O  0.27670707  0.99716041  0.81777557    -0.73050
Cu665      Cu  0.21875460  0.99770363  0.74396158     1.04560
Cu666      Cu  0.27961183  0.99771384  0.74342905     1.04330
C667        C  0.24768450  0.49644524  0.84144042     0.93250
C668        C  0.24984201  0.99658476  0.64555847     0.92390
C669        C  0.20926446  0.91803184  0.74461134     0.84530
C670        C  0.28907040  0.57797030  0.74510362     0.90810
O671        O  0.02884404  0.81725891  0.50370863    -0.72950
O672        O  0.03804309  0.72001674  0.50063045    -0.73930
O673        O  0.03255847  0.76866526  0.92752405    -0.62550
O674        O  0.03339558  0.76825805  0.57700423    -0.70960
O675        O  0.46743782  0.73199367  0.57835976    -0.70510
O676        O  0.46679611  0.73032483  0.92951897    -0.61760
O677        O  0.47212423  0.68293801  0.00435393    -0.74270
O678        O  0.46294969  0.78041469  0.00385895    -0.73050
Cu679      Cu  0.03556167  0.76991703  0.50221320     1.04560
Cu680      Cu  0.46499406  0.73009391  0.00411419     1.04330
C681        C  0.99475504  0.81432812  0.00379119     0.93250
C682        C  0.00630549  0.68607878  0.00222878     0.92390
C683        C  0.99946647  0.74931602  0.90517826     0.84530
C684        C  0.00041330  0.74996039  0.60097470     0.90810
C685        C  0.14687532  0.60829723  0.02599335    -0.12270
C686        C  0.14573662  0.64390575  0.02429324     0.04730
C687        C  0.11111743  0.64288419  0.54344974    -0.07560
C688        C  0.07787674  0.60592476  0.55509485    -0.08300
C689        C  0.07570226  0.57037186  0.03886148    -0.02860
C690        C  0.11306100  0.57276834  0.04156845     0.03960
N691        N  0.11873349  0.54855402  0.57685996     0.66470
H692        H  0.17502262  0.60918134  0.02219261     0.15370
H693        H  0.05413907  0.60557562  0.57611566     0.15080
N694        N  0.10911317  0.67830390  0.55263527     0.74170
O695        O  0.15210437  0.55092941  0.08042212    -0.39280
O696        O  0.09265959  0.53003800  0.61015091    -0.39220
O697        O  0.10780421  0.69791657  0.01628530    -0.39930
O698        O  0.09930924  0.68443355  0.59539081    -0.39990
C699        C  0.40008378  0.92529190  0.52241715    -0.12270
C700        C  0.42595946  0.92923857  0.98284283     0.04730
C701        C  0.41481835  0.89627449  0.95004509    -0.07560
C702        C  0.37892218  0.86095149  0.95842373    -0.08300
C703        C  0.35268074  0.85789773  0.99644588    -0.02860
C704        C  0.36297367  0.89067600  0.52847313     0.03960
N705        N  0.33696755  0.88911714  0.56800694     0.66470
H706        H  0.40851486  0.94989475  0.54814688     0.15370
H707        H  0.37050554  0.83583985  0.93355116     0.15080
N708        N  0.43851715  0.89792080  0.90752557     0.74170
O709        O  0.35076702  0.90167303  0.61072225    -0.39280
O710        O  0.30303761  0.88356136  0.05807692    -0.39220
O711        O  0.43777099  0.86668651  0.39211145    -0.39930
O712        O  0.45547463  0.92874759  0.88099767    -0.39990
C713        C  0.49112628  0.62417540  0.54286422    -0.12270
C714        C  0.00879655  0.64991943  0.00239896     0.04730
C715        C  0.02722507  0.64016990  0.96318218    -0.07560
C716        C  0.02695750  0.60406730  0.96570462    -0.08300
C717        C  0.00748870  0.57735556  0.00490514    -0.02860
C718        C  0.48986618  0.58757144  0.54489460     0.03960
N719        N  0.47036181  0.56124302  0.58651717     0.66470
H720        H  0.47768034  0.63257190  0.57272524     0.15370
H721        H  0.03993854  0.59541532  0.93555924     0.15080
N722        N  0.04418682  0.66489192  0.91964698     0.74170
O723        O  0.44667062  0.56615001  0.61431558    -0.39280
O724        O  0.47854211  0.53475618  0.59791265    -0.39220
O725        O  0.03183353  0.68751720  0.90535247    -0.39930
O726        O  0.06820475  0.66055072  0.89176707    -0.39990
C727        C  0.47766871  0.90035861  0.53053680    -0.12270
C728        C  0.99709928  0.92474610  0.98919318     0.04730
C729        C  0.01573717  0.91227778  0.95306019    -0.07560
C730        C  0.01323241  0.87540133  0.95927531    -0.08300
C731        C  0.99293948  0.85081970  0.99975345    -0.02860
C732        C  0.47484719  0.86321745  0.53613148     0.03960
N733        N  0.45576933  0.84010063  0.58005866     0.66470
H734        H  0.46477648  0.91065106  0.55892353     0.15370
H735        H  0.02729056  0.86549245  0.93200101     0.15080
N736        N  0.03798965  0.93638660  0.91088504     0.74170
O737        O  0.45784206  0.85749072  0.62081861    -0.39280
O738        O  0.43281317  0.80287374  0.07727960    -0.39220
O739        O  0.06411246  0.93098366  0.38967914    -0.39930
O740        O  0.03125623  0.96237179  0.89351914    -0.39990
C741        C  0.07711658  0.97098650  0.53193974    -0.12270
C742        C  0.07274224  0.49554240  0.99758334     0.04730
C743        C  0.10255141  0.51596208  0.96039395    -0.07560
C744        C  0.13623471  0.51183407  0.96046975    -0.08300
C745        C  0.14076556  0.48814820  0.99560150    -0.02860
C746        C  0.11068722  0.96690533  0.53135530     0.03960
N747        N  0.11527529  0.94443714  0.57008447     0.66470
H748        H  0.05476133  0.95606729  0.56078594     0.15370
H749        H  0.15978008  0.52782356  0.93326297     0.15080
N750        N  0.10050734  0.54221491  0.92416448     0.74170
O751        O  0.10654751  0.94822426  0.61449155    -0.39280
O752        O  0.12174261  0.91646044  0.05932342    -0.39220
O753        O  0.13100518  0.56567012  0.39895255    -0.39930
O754        O  0.06848675  0.54159489  0.91565764    -0.39990
C755        C  0.35971753  0.97205493  0.95329010    -0.12270
C756        C  0.35649529  0.50195263  0.97934542     0.04730
C757        C  0.39146818  0.53840952  0.48765159    -0.07560
C758        C  0.42768087  0.54217045  0.47379147    -0.08300
C759        C  0.43173491  0.50878269  0.96356799    -0.02860
C760        C  0.39744880  0.97731323  0.94094347     0.03960
N761        N  0.40143937  0.95804372  0.89723130     0.66470
H762        H  0.33327757  0.94684764  0.93821212     0.15370
H763        H  0.45102018  0.57189317  0.46669177     0.15080
N764        N  0.39097458  0.57217781  0.50902428     0.74170
O765        O  0.37263687  0.92521930  0.88294052    -0.39280
O766        O  0.42946901  0.97827239  0.86686720    -0.39220
O767        O  0.37753892  0.57019002  0.55263884    -0.39930
O768        O  0.40764237  0.60513560  0.48652005    -0.39990
C769        C  0.96548903  0.46709001  0.98051475     0.02280
C770        C  0.96817640  0.00526241  0.97987921     0.02280
C771        C  0.00396229  0.03815320  0.00095304     0.02280
C772        C  0.53777649  0.03484063  0.01533477     0.02280
C773        C  0.53638726  0.49867632  0.00122482     0.02280
C774        C  0.50002623  0.46455720  0.98815838     0.02280
O775        O  0.81676628  0.28735357  0.50071942    -0.72950
O776        O  0.71579326  0.18225762  0.50922033    -0.73930
O777        O  0.76416940  0.23241970  0.43008915    -0.62550
O778        O  0.76877729  0.23635690  0.07870317    -0.70960
O779        O  0.73408866  0.26757956  0.08114517    -0.70510
O780        O  0.73034079  0.26449359  0.43165094    -0.61760
O781        O  0.68213510  0.21420621  0.51067268    -0.74270
O782        O  0.78240575  0.31880101  0.50362179    -0.73050
Cu783      Cu  0.76762949  0.23354125  0.50443227     1.04560
Cu784      Cu  0.73104407  0.26738610  0.50665297     1.04330
C785        C  0.81549368  0.31964143  0.50137542     0.93250
C786        C  0.68286293  0.18183663  0.51350475     0.92390
C787        C  0.74688166  0.24803520  0.40749068     0.84530
C788        C  0.75152020  0.25180713  0.10320157     0.90810
O789        O  0.68085169  0.45816713  0.49592498    -0.72950
O790        O  0.78605104  0.46413552  0.48922111    -0.73930
O791        O  0.73489294  0.46215072  0.06817480    -0.62550
O792        O  0.73264930  0.46201533  0.41815679    -0.70960
O793        O  0.76167711  0.02815885  0.41937432    -0.70510
O794        O  0.76447499  0.02829803  0.06753136    -0.61760
O795        O  0.81483950  0.03003115  0.98896306    -0.74270
O796        O  0.71059303  0.02431746  0.49641893    -0.73050
Cu797      Cu  0.73248814  0.45917505  0.49303491     1.04560
Cu798      Cu  0.76397564  0.02994169  0.49327949     1.04330
C799        C  0.67913454  0.99010670  0.49666208     0.93250
C800        C  0.81728137  0.99843999  0.48684392     0.92390
C801        C  0.74983814  0.99554178  0.09123680     0.84530
C802        C  0.74702634  0.99536743  0.39550261     0.90810
C803        C  0.81136330  0.12289454  0.24754630     0.03130
C804        C  0.85330098  0.14457133  0.24892760    -0.13020
C805        C  0.87475027  0.18670210  0.25185633     0.00630
C806        C  0.85332813  0.20720159  0.25340397    -0.11550
C807        C  0.81137643  0.18653850  0.25223179     0.03120
C808        C  0.79086164  0.14437568  0.24928853    -0.10970
H809        H  0.86937052  0.12852092  0.24771168     0.08710
H810        H  0.86941997  0.23945468  0.25555378     0.06240
H811        H  0.75872920  0.12817400  0.24836289     0.06090
O812        O  0.49946805  0.27773525  0.32800814    -0.72950
O813        O  0.00011437  0.27811312  0.17905445    -0.73930
O814        O  0.93888416  0.24739821  0.25391830    -0.62550
O815        O  0.55997217  0.30728133  0.25267529    -0.70960
O816        O  0.55914600  0.24980908  0.25225553    -0.70510
O817        O  0.93835962  0.19009176  0.25237402    -0.61760
O818        O  0.99960859  0.22057770  0.17778174    -0.74270
O819        O  0.49804114  0.21976693  0.32717037    -0.73050
Cu820      Cu  0.99958963  0.27959800  0.25349947     1.04560
Cu821      Cu  0.49873251  0.21805443  0.25240603     1.04330
C822        C  0.49895355  0.24889688  0.35094499     0.93250
C823        C  0.00018553  0.24958569  0.15510588     0.92390
C824        C  0.91940661  0.20914458  0.25286231     0.84530
C825        C  0.57873291  0.28800695  0.25217517     0.90810
C826        C  0.68682588  0.37343512  0.24714049     0.03130
C827        C  0.64492458  0.35206067  0.24817966    -0.13020
C828        C  0.62330713  0.31006429  0.25133600     0.00630
C829        C  0.64454324  0.28942941  0.25351816    -0.11550
C830        C  0.68654090  0.31006633  0.25281138     0.03120
C831        C  0.70719117  0.35204901  0.24955596    -0.10970
H832        H  0.62902760  0.36823271  0.24649392     0.08710
H833        H  0.62832540  0.25719610  0.25587887     0.06240
H834        H  0.73934983  0.36820375  0.24889660     0.06090
O835        O  0.77942621  0.27876972  0.18117449    -0.72950
O836        O  0.77613856  0.27689829  0.33007411    -0.73930
O837        O  0.80795134  0.24719706  0.25495362    -0.62550
O838        O  0.74698924  0.30721676  0.25552612    -0.70960
O839        O  0.69015872  0.24980713  0.25492023    -0.70510
O840        O  0.75104063  0.18993644  0.25359639    -0.61760
O841        O  0.71917241  0.21923513  0.32946331    -0.74270
O842        O  0.72216224  0.22136170  0.17992784    -0.73050
Cu843      Cu  0.77960384  0.27947580  0.25558057     1.04560
Cu844      Cu  0.71868690  0.21805685  0.25450131     1.04330
C845        C  0.75103876  0.25062669  0.15726893     0.93250
C846        C  0.74723260  0.24805718  0.35316413     0.92390
C847        C  0.78909777  0.20894321  0.25373965     0.84530
C848        C  0.70892219  0.28799319  0.25468291     0.90810
O849        O  0.71974239  0.99730216  0.31856763    -0.72950
O850        O  0.72146006  0.49735549  0.16913579    -0.73930
O851        O  0.69050486  0.43724387  0.24409266    -0.62550
O852        O  0.75102149  0.05854296  0.24455047    -0.70960
O853        O  0.80789671  0.05872536  0.24408632    -0.70510
O854        O  0.74731227  0.43720207  0.24362078    -0.61760
O855        O  0.77841630  0.49725511  0.16875277    -0.74270
O856        O  0.77671047  0.49715822  0.31777307    -0.73050
Cu857      Cu  0.71875577  0.49770340  0.24396381     1.04560
Cu858      Cu  0.77961304  0.49771355  0.24342658     1.04330
C859        C  0.74768916  0.99644378  0.34144029     0.93250
C860        C  0.74983996  0.49658592  0.14555854     0.92390
C861        C  0.70926564  0.41803153  0.24460741     0.84530
C862        C  0.78907159  0.07796998  0.24510743     0.90810
O863        O  0.52883578  0.31724549  0.00371217    -0.72950
O864        O  0.53800968  0.21998938  0.00062516    -0.73930
O865        O  0.53257778  0.26868226  0.42752282    -0.62550
O866        O  0.53337800  0.26823634  0.07700216    -0.70960
O867        O  0.96741927  0.23198629  0.07836262    -0.70510
O868        O  0.96681642  0.23033411  0.42951916    -0.61760
O869        O  0.97215895  0.18295498  0.50434977    -0.74270
O870        O  0.96295885  0.28041842  0.50385745    -0.73050
Cu871      Cu  0.53554190  0.26989661  0.00221252     1.04560
Cu872      Cu  0.96501508  0.23010301  0.50411216     1.04330
C873        C  0.49476044  0.31433501  0.50378725     0.93250
C874        C  0.50634339  0.18610296  0.50222913     0.92390
C875        C  0.49948555  0.24932823  0.40517786     0.84530
C876        C  0.50039653  0.24994654  0.10097509     0.90810
C877        C  0.64689238  0.10830504  0.52595999    -0.12270
C878        C  0.64575119  0.14391310  0.52429053     0.04730
C879        C  0.61109915  0.14288289  0.04342590    -0.07560
C880        C  0.57785503  0.10592725  0.05507366    -0.08300
C881        C  0.57572392  0.07037421  0.53885924    -0.02860
C882        C  0.61308479  0.07277296  0.54154019     0.03960
N883        N  0.61869666  0.04854457  0.07689284     0.66470
H884        H  0.67503954  0.10919137  0.52213637     0.15370
H885        H  0.55411522  0.10558610  0.07607981     0.15080
N886        N  0.60909367  0.17830528  0.05258193     0.74170
O887        O  0.65214536  0.05094274  0.58036750    -0.39280
O888        O  0.59261065  0.03002428  0.11016959    -0.39220
O889        O  0.60781307  0.19792403  0.51635927    -0.39930
O890        O  0.59928004  0.18444649  0.09532547    -0.39990
C891        C  0.90007791  0.42527272  0.02242016    -0.12270
C892        C  0.92596545  0.42925665  0.48284055     0.04730
C893        C  0.91482070  0.39629340  0.45003994    -0.07560
C894        C  0.87892261  0.36097212  0.45841698    -0.08300
C895        C  0.85268284  0.35791826  0.49644135    -0.02860
C896        C  0.86296917  0.39065577  0.02847633     0.03960
N897        N  0.83696134  0.38909662  0.06800786     0.66470
H898        H  0.90850696  0.44987627  0.04814817     0.15370
H899        H  0.87050422  0.33586087  0.43354310     0.15080
N900        N  0.93851888  0.39793753  0.40752085     0.74170
O901        O  0.85075805  0.40164695  0.11072565    -0.39280
O902        O  0.80303995  0.38357373  0.55807991    -0.39220
O903        O  0.93777104  0.36667093  0.89211490    -0.39930
O904        O  0.95547518  0.42876260  0.38098995    -0.39990
C905        C  0.99107411  0.12414124  0.04285293    -0.12270
C906        C  0.50884170  0.14994731  0.50240252     0.04730
C907        C  0.52725931  0.14018872  0.46317973    -0.07560
C908        C  0.52698281  0.10408112  0.46570424    -0.08300
C909        C  0.50751934  0.07737549  0.50491155    -0.02860
C910        C  0.98982218  0.08754114  0.04488211     0.03960
N911        N  0.97031839  0.06120880  0.08650130     0.66470
H912        H  0.97762026  0.13253145  0.07271091     0.15370
H913        H  0.53995427  0.09542079  0.43555643     0.15080
N914        N  0.54422137  0.16490591  0.41963911     0.74170
O915        O  0.94661597  0.06610386  0.11429247    -0.39280
O916        O  0.97851388  0.03473429  0.09790505    -0.39220
O917        O  0.53191403  0.18757804  0.40537992    -0.39930
O918        O  0.56819885  0.16052555  0.39172714    -0.39990
C919        C  0.97766859  0.40035400  0.03054411    -0.12270
C920        C  0.49709945  0.42475083  0.48918599     0.04730
C921        C  0.51573435  0.41228065  0.45305087    -0.07560
C922        C  0.51322862  0.37540363  0.45926553    -0.08300
C923        C  0.49293840  0.35082322  0.49974573    -0.02860
C924        C  0.97484677  0.36321291  0.03613812     0.03960
N925        N  0.95576620  0.34009456  0.08006330     0.66470
H926        H  0.96477474  0.41064545  0.05892995     0.15370
H927        H  0.52728564  0.36549410  0.43199042     0.15080
N928        N  0.53798519  0.43638836  0.41087411     0.74170
O929        O  0.95784170  0.35748335  0.12082520    -0.39280
O930        O  0.93282261  0.30287827  0.57727866    -0.39220
O931        O  0.56412124  0.43098577  0.88969564    -0.39930
O932        O  0.53125427  0.46237633  0.39351191    -0.39990
C933        C  0.57711329  0.47099048  0.03194466    -0.12270
C934        C  0.57274792  0.99553880  0.49757662     0.04730
C935        C  0.60255507  0.01595158  0.46038260    -0.07560
C936        C  0.63623502  0.01181787  0.46045727    -0.08300
C937        C  0.64076561  0.98813474  0.49559344    -0.02860
C938        C  0.61068629  0.46691379  0.03136014     0.03960
N939        N  0.61527509  0.44444376  0.07008598     0.66470
H940        H  0.55475741  0.45606701  0.06078894     0.15370
H941        H  0.65977967  0.02780324  0.43324825     0.15080
N942        N  0.60051369  0.04220476  0.42415096     0.74170
O943        O  0.60655358  0.44823333  0.11449514    -0.39280
O944        O  0.62175103  0.41645839  0.55932491    -0.39220
O945        O  0.63100040  0.06568863  0.89897427    -0.39930
O946        O  0.56849798  0.04159819  0.41565606    -0.39990
C947        C  0.85973881  0.47208216  0.45327697    -0.12270
C948        C  0.85650793  0.00196566  0.47935643     0.04730
C949        C  0.89145982  0.03840139  0.98760616    -0.07560
C950        C  0.92766749  0.04215302  0.97374011    -0.08300
C951        C  0.93175387  0.00880781  0.46358560    -0.02860
C952        C  0.89747407  0.47734762  0.44093754     0.03960
N953        N  0.90147689  0.45809128  0.39722005     0.66470
H954        H  0.83330398  0.44688228  0.43817899     0.15370
H955        H  0.95101104  0.07187340  0.96662567     0.15080
N956        N  0.89097523  0.07218223  0.00895106     0.74170
O957        O  0.87267834  0.42527177  0.38290945    -0.39280
O958        O  0.92951693  0.47832815  0.36687220    -0.39220
O959        O  0.87756710  0.07022412  0.05257508    -0.39930
O960        O  0.90762577  0.10512369  0.98640980    -0.39990
C961        C  0.96549882  0.46710513  0.48051640     0.02280
C962        C  0.96819299  0.00528115  0.47988869     0.02280
C963        C  0.00398312  0.03816790  0.50096011     0.02280
C964        C  0.53779384  0.03484769  0.51533529     0.02280
C965        C  0.53639728  0.49868043  0.50122140     0.02280
C966        C  0.50003278  0.46456526  0.48815547     0.02280
O967        O  0.81675869  0.28733291  0.00071940    -0.72950
O968        O  0.71577912  0.18224244  0.00922015    -0.73930
O969        O  0.76415820  0.23240288  0.93008831    -0.62550
O970        O  0.76878773  0.23637494  0.57870327    -0.70960
O971        O  0.73409255  0.26759076  0.58114512    -0.70510
O972        O  0.73033646  0.26448379  0.93165176    -0.61760
O973        O  0.68212822  0.21419835  0.01067315    -0.74270
O974        O  0.78240377  0.31878619  0.00362307    -0.73050
Cu975      Cu  0.76761840  0.23352319  0.00443185     1.04560
Cu976      Cu  0.73103987  0.26737515  0.00665356     1.04330
C977        C  0.81548974  0.31962271  0.00137694     0.93250
C978        C  0.68285119  0.18182625  0.01350517     0.92390
C979        C  0.74687440  0.24802293  0.90749062     0.84530
C980        C  0.75152655  0.25182087  0.60320164     0.90810
O981        O  0.68084612  0.45817460  0.99592796    -0.72950
O982        O  0.78603850  0.46412885  0.98921992    -0.73930
O983        O  0.73490086  0.46215048  0.56817428    -0.62550
O984        O  0.73263919  0.46201600  0.91815726    -0.70960
O985        O  0.76167326  0.02815987  0.91937488    -0.70510
O986        O  0.76447662  0.02829745  0.56753112    -0.61760
O987        O  0.81484631  0.03003770  0.48896469    -0.74270
O988        O  0.71059304  0.02432506  0.99642146    -0.73050
Cu989      Cu  0.73247875  0.45917542  0.99303563     1.04560
Cu990      Cu  0.76397272  0.02994231  0.99327998     1.04330
C991        C  0.67913259  0.99011591  0.99666609     0.93250
C992        C  0.81727104  0.99843158  0.98684029     0.92390
C993        C  0.74984226  0.99554132  0.59123648     0.84530
C994        C  0.74701968  0.99536837  0.89550305     0.90810
C995        C  0.81136210  0.12289509  0.74753938     0.03130
C996        C  0.85329988  0.14457204  0.74891719    -0.13020
C997        C  0.87474921  0.18670291  0.75184349     0.00630
C998        C  0.85332709  0.20720236  0.75339209    -0.11550
C999        C  0.81137533  0.18653916  0.75222317     0.03120
C1000       C  0.79086044  0.14437622  0.74928205    -0.10970
H1001       H  0.86936946  0.12852166  0.74770121     0.08710
H1002       H  0.86941897  0.23945549  0.75554074     0.06240
H1003       H  0.75872791  0.12817443  0.74835927     0.06090
O1004       O  0.49945592  0.27772855  0.82800990    -0.72950
O1005       O  0.00012396  0.27812162  0.67905568    -0.73930
O1006       O  0.93888294  0.24739904  0.75390823    -0.62550
O1007       O  0.55997089  0.30728220  0.75268812    -0.70960
O1008       O  0.55914463  0.24980989  0.75226361    -0.70510
O1009       O  0.93835845  0.19009261  0.75236239    -0.61760
O1010       O  0.99961619  0.22058523  0.67777999    -0.74270
O1011       O  0.49803035  0.21976092  0.82716853    -0.73050
Cu1012     Cu  0.99958831  0.27959887  0.75350104     1.04560
Cu1013     Cu  0.49873115  0.21805528  0.75240407     1.04330
C1014       C  0.49893814  0.24888790  0.85094512     0.93250
C1015       C  0.00019790  0.24959618  0.65510560     0.92390
C1016       C  0.91940547  0.20914543  0.75285007     0.84530
C1017       C  0.57873161  0.28800779  0.75218710     0.90810
C1018       C  0.68682462  0.37343568  0.74714754     0.03130
C1019       C  0.64492333  0.35206139  0.74819014    -0.13020
C1020       C  0.62330587  0.31006510  0.75134872     0.00630
C1021       C  0.64454203  0.28943021  0.75352986    -0.11550
C1022       C  0.68653972  0.31006703  0.75281998     0.03120
C1023       C  0.70718994  0.35204959  0.74956256    -0.10970
H1024       H  0.62902634  0.36823342  0.74650446     0.08710
H1025       H  0.62832421  0.25719694  0.75589156     0.06240
H1026       H  0.73934860  0.36820420  0.74890038     0.06090
O1027       O  0.77942889  0.27877737  0.68117828    -0.72950
O1028       O  0.77613411  0.27689219  0.83007767    -0.73930
O1029       O  0.80795028  0.24719764  0.75495293    -0.62550
O1030       O  0.74698811  0.30721744  0.75553384    -0.70960
O1031       O  0.69015773  0.24980780  0.75492174    -0.70510
O1032       O  0.75103965  0.18993720  0.75358746    -0.61760
O1033       O  0.71916862  0.21922855  0.82945946    -0.74270
O1034       O  0.72216450  0.22137003  0.67992407    -0.73050
Cu1035     Cu  0.77960284  0.27947651  0.75558447     1.04560
Cu1036     Cu  0.71868603  0.21805766  0.75449721     1.04330
C1037       C  0.75104220  0.25063676  0.65726899     0.93250
C1038       C  0.74722764  0.24804877  0.85316401     0.92390
C1039       C  0.78909673  0.20894388  0.75373354     0.84530
C1040       C  0.70892109  0.28799387  0.75468889     0.90810
O1041       O  0.71973829  0.99730306  0.81856568    -0.72950
O1042       O  0.72146162  0.49735520  0.66913345    -0.73930
O1043       O  0.69050366  0.43724424  0.74409225    -0.62550
O1044       O  0.75102025  0.05854334  0.74454670    -0.70960
O1045       O  0.80789545  0.05872576  0.74408567    -0.70510
O1046       O  0.74731105  0.43720251  0.74362571    -0.61760
O1047       O  0.77841727  0.49725374  0.66875484    -0.74270
O1048       O  0.77670694  0.49716035  0.81777547    -0.73050
Cu1049     Cu  0.71875457  0.49770376  0.74396147     1.04560
Cu1050     Cu  0.77961179  0.49771395  0.74342894     1.04330
C1051       C  0.74768441  0.99644513  0.84144057     0.93250
C1052       C  0.74984210  0.49658512  0.64555835     0.92390
C1053       C  0.70926442  0.41803197  0.74461100     0.84530
C1054       C  0.78907035  0.07797040  0.74510391     0.90810
O1055       O  0.52884422  0.31725899  0.50370867    -0.72950
O1056       O  0.53804283  0.22001658  0.50063035    -0.73930
O1057       O  0.53255865  0.26866536  0.92752402    -0.62550
O1058       O  0.53339554  0.26825795  0.57700420    -0.70960
O1059       O  0.96743788  0.23199338  0.57835959    -0.70510
O1060       O  0.96679618  0.23032499  0.92951888    -0.61760
O1061       O  0.97212406  0.18293809  0.00435397    -0.74270
O1062       O  0.96295003  0.28041505  0.00385880    -0.73050
Cu1063     Cu  0.53556164  0.26991698  0.50221317     1.04560
Cu1064     Cu  0.96499415  0.23009414  0.00411410     1.04330
C1065       C  0.49475473  0.31432787  0.00379103     0.93250
C1066       C  0.50630631  0.18607911  0.00222874     0.92390
C1067       C  0.49946666  0.24931601  0.90517823     0.84530
C1068       C  0.50041325  0.24996042  0.60097468     0.90810
C1069       C  0.64687535  0.10829732  0.02599025    -0.12270
C1070       C  0.64573645  0.14390579  0.02429243     0.04730
C1071       C  0.61111744  0.14288438  0.54344937    -0.07560
C1072       C  0.57787668  0.10592504  0.55509456    -0.08300
C1073       C  0.57570270  0.07037149  0.03886078    -0.02860
C1074       C  0.61306163  0.07276826  0.04156598     0.03960
N1075       N  0.61873309  0.04855401  0.57686062     0.66470
H1076       H  0.67502263  0.10918159  0.02218780     0.15370
H1077       H  0.55413899  0.10557606  0.57611512     0.15080
N1078       N  0.60911318  0.17830415  0.55263437     0.74170
O1079       O  0.65210651  0.05093058  0.08041837    -0.39280
O1080       O  0.59265897  0.03003793  0.61015132    -0.39220
O1081       O  0.60780371  0.19791669  0.01629015    -0.39930
O1082       O  0.59930913  0.18443405  0.59538971    -0.39990
C1083       C  0.90008376  0.42529188  0.52241695    -0.12270
C1084       C  0.92595950  0.42923845  0.98284340     0.04730
C1085       C  0.91481840  0.39627433  0.95004576    -0.07560
C1086       C  0.87892212  0.36095143  0.95842427    -0.08300
C1087       C  0.85268055  0.35789782  0.99644617    -0.02860
C1088       C  0.86297370  0.39067593  0.52847298     0.03960
N1089       N  0.83696764  0.38911696  0.56800692     0.66470
H1090       H  0.90851485  0.44989469  0.54814676     0.15370
H1091       H  0.87050548  0.33583975  0.93355175     0.15080
N1092       N  0.93851728  0.39792051  0.90752639     0.74170
O1093       O  0.85076718  0.40167279  0.61072222    -0.39280
O1094       O  0.80303743  0.38356174  0.05807662    -0.39220
O1095       O  0.93777084  0.36668674  0.39211078    -0.39930
O1096       O  0.95547492  0.42874727  0.88099845    -0.39990
C1097       C  0.99112756  0.12417602  0.54286428    -0.12270
C1098       C  0.50879765  0.14991990  0.00239892     0.04730
C1099       C  0.52722584  0.14017013  0.96318188    -0.07560
C1100       C  0.52695808  0.10406742  0.96570437    -0.08300
C1101       C  0.50748945  0.07735581  0.00490505    -0.02860
C1102       C  0.98986722  0.08757195  0.54489466     0.03960
N1103       N  0.97036286  0.06124363  0.58651733     0.66470
H1104       H  0.97768189  0.13257270  0.57272545     0.15370
H1105       H  0.53993883  0.09541519  0.93555890     0.15080
N1106       N  0.54418740  0.16489193  0.91964639     0.74170
O1107       O  0.94667200  0.06615094  0.61431597    -0.39280
O1108       O  0.97854275  0.03475644  0.59791254    -0.39220
O1109       O  0.53183588  0.18751909  0.90535351    -0.39930
O1110       O  0.56820347  0.16054904  0.89176487    -0.39990
C1111       C  0.97766833  0.40035835  0.53053644    -0.12270
C1112       C  0.49709907  0.42474592  0.98919300     0.04730
C1113       C  0.51573691  0.41227754  0.95306000    -0.07560
C1114       C  0.51323201  0.37540103  0.95927506    -0.08300
C1115       C  0.49293899  0.35081936  0.99975313    -0.02860
C1116       C  0.97484658  0.36321707  0.53613096     0.03960
N1117       N  0.95576838  0.34010005  0.58005787     0.66470
H1118       H  0.96477609  0.41065079  0.55892318     0.15370
H1119       H  0.52729018  0.36549215  0.93200078     0.15080
N1120       N  0.53798947  0.43638638  0.91088491     0.74170
O1121       O  0.95784123  0.35748995  0.62081802    -0.39280
O1122       O  0.93281426  0.30287403  0.07728034    -0.39220
O1123       O  0.56411310  0.43098434  0.38967991    -0.39930
O1124       O  0.53125610  0.46237159  0.89351896    -0.39990
C1125       C  0.57711679  0.47098680  0.53193980    -0.12270
C1126       C  0.57274209  0.99554176  0.99758279     0.04730
C1127       C  0.60255107  0.01596074  0.96039295    -0.07560
C1128       C  0.63623421  0.01183246  0.96046898    -0.08300
C1129       C  0.64076519  0.98814719  0.99560151    -0.02860
C1130       C  0.61068748  0.46690573  0.53135505     0.03960
N1131       N  0.61527544  0.44443699  0.57008356     0.66470
H1132       H  0.55476150  0.45606722  0.56078585     0.15370
H1133       H  0.65977947  0.02782144  0.93326191     0.15080
N1134       N  0.60050700  0.04221313  0.92416275     0.74170
O1135       O  0.60654832  0.44822414  0.61449095    -0.39280
O1136       O  0.62174269  0.41646045  0.05932369    -0.39220
O1137       O  0.63100530  0.06567062  0.39895298    -0.39930
O1138       O  0.56848684  0.04159439  0.91565722    -0.39990
C1139       C  0.85971723  0.47205439  0.95329028    -0.12270
C1140       C  0.85649539  0.00195272  0.97934521     0.04730
C1141       C  0.89146826  0.03840958  0.48765262    -0.07560
C1142       C  0.92768101  0.04217063  0.47379258    -0.08300
C1143       C  0.93173496  0.00878268  0.96356782    -0.02860
C1144       C  0.89744846  0.47731261  0.94094360     0.03960
N1145       N  0.90143888  0.45804282  0.89723162     0.66470
H1146       H  0.83327721  0.44684693  0.93821270     0.15370
H1147       H  0.95102028  0.07189341  0.46669317     0.15080
N1148       N  0.89097457  0.07217768  0.50902580     0.74170
O1149       O  0.87263633  0.42521832  0.88294116    -0.39280
O1150       O  0.92946843  0.47827128  0.86686731    -0.39220
O1151       O  0.87753851  0.07018943  0.55264023    -0.39930
O1152       O  0.90764255  0.10513571  0.48652212    -0.39990
C1153       C  0.96548911  0.96709001  0.98051470     0.02280
C1154       C  0.96817634  0.50526241  0.97987925     0.02280
C1155       C  0.00396224  0.53815319  0.00095308     0.02280
C1156       C  0.53777622  0.53484072  0.01533516     0.02280
C1157       C  0.53638733  0.99867615  0.00122434     0.02280
C1158       C  0.50002621  0.96455715  0.98815797     0.02280
O1159       O  0.81676632  0.78735351  0.50071951    -0.72950
O1160       O  0.71579329  0.68225748  0.50922066    -0.73930
O1161       O  0.76416937  0.73241954  0.43008934    -0.62550
O1162       O  0.76877752  0.73635679  0.07870340    -0.70960
O1163       O  0.73408895  0.76757951  0.08114531    -0.70510
O1164       O  0.73034079  0.76449347  0.43165113    -0.61760
O1165       O  0.68213520  0.71420614  0.51067295    -0.74270
O1166       O  0.78240579  0.81880095  0.50362189    -0.73050
Cu1167     Cu  0.76762953  0.73354115  0.50443247     1.04560
Cu1168     Cu  0.73104413  0.76738603  0.50665316     1.04330
C1169       C  0.81549371  0.81964137  0.50137549     0.93250
C1170       C  0.68286298  0.68183653  0.51350510     0.92390
C1171       C  0.74688164  0.74803506  0.40749087     0.84530
C1172       C  0.75152045  0.75180707  0.10320176     0.90810
O1173       O  0.68085166  0.95816688  0.49592512    -0.72950
O1174       O  0.78605112  0.96413554  0.48922131    -0.73930
O1175       O  0.73489299  0.96215052  0.06817501    -0.62550
O1176       O  0.73264935  0.96201526  0.41815697    -0.70960
O1177       O  0.76167720  0.52815892  0.41937409    -0.70510
O1178       O  0.76447509  0.52829824  0.06753116    -0.61760
O1179       O  0.81483950  0.53003116  0.98896291    -0.74270
O1180       O  0.71059318  0.52431771  0.49641868    -0.73050
Cu1181     Cu  0.73248817  0.95917495  0.49303509     1.04560
Cu1182     Cu  0.76397572  0.52994179  0.49327926     1.04330
C1183       C  0.67913464  0.49010700  0.49666190     0.93250
C1184       C  0.81728133  0.49843994  0.48684375     0.92390
C1185       C  0.74983817  0.49554197  0.09123660     0.84530
C1186       C  0.74702636  0.49536749  0.39550241     0.90810
C1187       C  0.81136336  0.62289457  0.24754628     0.03130
C1188       C  0.85330104  0.64457135  0.24892758    -0.13020
C1189       C  0.87475033  0.68670211  0.25185638     0.00630
C1190       C  0.85332820  0.70720161  0.25340411    -0.11550
C1191       C  0.81137650  0.68653852  0.25223194     0.03120
C1192       C  0.79086171  0.64437571  0.24928859    -0.10970
H1193       H  0.86937058  0.62852094  0.24771159     0.08710
H1194       H  0.86942004  0.73945469  0.25555398     0.06240
H1195       H  0.75872927  0.62817403  0.24836295     0.06090
O1196       O  0.49946803  0.77773523  0.32800823    -0.72950
O1197       O  0.00011440  0.77811311  0.17905449    -0.73930
O1198       O  0.93888421  0.74739822  0.25391835    -0.62550
O1199       O  0.55997215  0.80728127  0.25267535    -0.70960
O1200       O  0.55914596  0.74980901  0.25225561    -0.70510
O1201       O  0.93835968  0.69009176  0.25237406    -0.61760
O1202       O  0.99960863  0.72057770  0.17778179    -0.74270
O1203       O  0.49804109  0.71976690  0.32717048    -0.73050
Cu1204     Cu  0.99958967  0.77959801  0.25349951     1.04560
Cu1205     Cu  0.49873246  0.71805438  0.25240613     1.04330
C1206       C  0.49895350  0.74889685  0.35094508     0.93250
C1207       C  0.00018556  0.74958568  0.15510593     0.92390
C1208       C  0.91940667  0.70914459  0.25286236     0.84530
C1209       C  0.57873289  0.78800689  0.25217524     0.90810
C1210       C  0.68682587  0.87343504  0.24714069     0.03130
C1211       C  0.64492457  0.85206060  0.24817981    -0.13020
C1212       C  0.62330711  0.81006421  0.25133610     0.00630
C1213       C  0.64454323  0.78942933  0.25351824    -0.11550
C1214       C  0.68654089  0.81006625  0.25281151     0.03120
C1215       C  0.70719116  0.85204893  0.24955615    -0.10970
H1216       H  0.62902760  0.86823264  0.24649408     0.08710
H1217       H  0.62832539  0.75719601  0.25587892     0.06240
H1218       H  0.73934982  0.86820367  0.24889682     0.06090
O1219       O  0.77942634  0.77876971  0.18117471    -0.72950
O1220       O  0.77613854  0.77689821  0.33007433    -0.73930
O1221       O  0.80795141  0.74719706  0.25495387    -0.62550
O1222       O  0.74698924  0.80721669  0.25552630    -0.70960
O1223       O  0.69015874  0.74980706  0.25492034    -0.70510
O1224       O  0.75104070  0.68993643  0.25359658    -0.61760
O1225       O  0.71917240  0.71923504  0.32946346    -0.74270
O1226       O  0.72216239  0.72136167  0.17992799    -0.73050
Cu1227     Cu  0.77960388  0.77947577  0.25558079     1.04560
Cu1228     Cu  0.71868696  0.71805681  0.25450146     1.04330
C1229       C  0.75103894  0.75062665  0.15726912     0.93250
C1230       C  0.74723258  0.74805707  0.35316432     0.92390
C1231       C  0.78909784  0.70894322  0.25373985     0.84530
C1232       C  0.70892219  0.78799312  0.25468304     0.90810
O1233       O  0.71974240  0.49730219  0.31856744    -0.72950
O1234       O  0.72146003  0.99735536  0.16913597    -0.73930
O1235       O  0.69050485  0.93724379  0.24409289    -0.62550
O1236       O  0.75102154  0.55854302  0.24455035    -0.70960
O1237       O  0.80789674  0.55872540  0.24408617    -0.70510
O1238       O  0.74731227  0.93720201  0.24362104    -0.61760
O1239       O  0.77841628  0.99725499  0.16875299    -0.74270
O1240       O  0.77671047  0.99715820  0.31777328    -0.73050
Cu1241     Cu  0.71875575  0.99770332  0.24396399     1.04560
Cu1242     Cu  0.77961303  0.99771349  0.24342679     1.04330
C1243       C  0.74768916  0.49644382  0.34144009     0.93250
C1244       C  0.74983993  0.99658576  0.14555874     0.92390
C1245       C  0.70926564  0.91803146  0.24460764     0.84530
C1246       C  0.78907164  0.57797002  0.24510733     0.90810
O1247       O  0.52883561  0.81724537  0.00371229    -0.72950
O1248       O  0.53800917  0.71998905  0.00062516    -0.73930
O1249       O  0.53257772  0.76868222  0.42752291    -0.62550
O1250       O  0.53337776  0.76823611  0.07700221    -0.70960
O1251       O  0.96741928  0.73198628  0.07836267    -0.70510
O1252       O  0.96681642  0.73033413  0.42951920    -0.61760
O1253       O  0.97215889  0.68295499  0.50434985    -0.74270
O1254       O  0.96295888  0.78041845  0.50385748    -0.73050
Cu1255     Cu  0.53554160  0.76989639  0.00221260     1.04560
Cu1256     Cu  0.96501508  0.73010303  0.50411222     1.04330
C1257       C  0.49476057  0.81433508  0.50378742     0.93250
C1258       C  0.50634308  0.68610281  0.50222924     0.92390
C1259       C  0.49948549  0.74932821  0.40517796     0.84530
C1260       C  0.50039631  0.74994641  0.10097518     0.90810
C1261       C  0.64689233  0.60830498  0.52596126    -0.12270
C1262       C  0.64575120  0.64391305  0.52429098     0.04730
C1263       C  0.61109902  0.64288317  0.04342503    -0.07560
C1264       C  0.57785474  0.60592775  0.05507305    -0.08300
C1265       C  0.57572371  0.57037429  0.53885957    -0.02860
C1266       C  0.61308452  0.57277294  0.54154117     0.03960
N1267       N  0.61869527  0.54854403  0.07689467     0.66470
H1268       H  0.67503950  0.60919127  0.52213827     0.15370
H1269       H  0.55411494  0.60558702  0.07607868     0.15080
N1270       N  0.60909342  0.67830570  0.05257930     0.74170
O1271       O  0.65214453  0.55094224  0.58036890    -0.39280
O1272       O  0.59260854  0.53002338  0.11017054    -0.39220
O1273       O  0.60781320  0.69792395  0.51635769    -0.39930
O1274       O  0.59927914  0.68444755  0.09532211    -0.39990
C1275       C  0.90007800  0.92527264  0.02242010    -0.12270
C1276       C  0.92596543  0.92925665  0.48284045     0.04730
C1277       C  0.91482068  0.89629339  0.45003986    -0.07560
C1278       C  0.87892261  0.86097209  0.45841695    -0.08300
C1279       C  0.85268287  0.85791822  0.49644136    -0.02860
C1280       C  0.86296931  0.89065563  0.02847631     0.03960
N1281       N  0.83696147  0.88909645  0.06800785     0.66470
H1282       H  0.90850700  0.94987620  0.04814810     0.15370
H1283       H  0.87050422  0.83586084  0.43354308     0.15080
N1284       N  0.93851883  0.89793753  0.40752073     0.74170
O1285       O  0.85075815  0.90164671  0.11072566    -0.39280
O1286       O  0.80303999  0.88357367  0.55807999    -0.39220
O1287       O  0.93777122  0.86667101  0.89211473    -0.39930
O1288       O  0.95547505  0.92876257  0.38098980    -0.39990
C1289       C  0.99107414  0.62414127  0.04285298    -0.12270
C1290       C  0.50884127  0.64994710  0.50240265     0.04730
C1291       C  0.52725907  0.64018864  0.46318000    -0.07560
C1292       C  0.52698263  0.60408109  0.46570442    -0.08300
C1293       C  0.50751905  0.57737537  0.50491162    -0.02860
C1294       C  0.98982219  0.58754116  0.04488216     0.03960
N1295       N  0.97031845  0.56120885  0.08650139     0.66470
H1296       H  0.97762034  0.63253152  0.07271099     0.15370
H1297       H  0.53995424  0.59542090  0.43555665     0.15080
N1298       N  0.54422125  0.66490599  0.41963956     0.74170
O1299       O  0.94661606  0.56610394  0.11429260    -0.39280
O1300       O  0.97851393  0.53473435  0.09790513    -0.39220
O1301       O  0.53191279  0.68757694  0.40537937    -0.39930
O1302       O  0.56819991  0.66052669  0.39172860    -0.39990
C1303       C  0.97766866  0.90035404  0.03054414    -0.12270
C1304       C  0.49709942  0.92475079  0.48918587     0.04730
C1305       C  0.51573426  0.91228055  0.45305075    -0.07560
C1306       C  0.51322861  0.87540358  0.45926555    -0.08300
C1307       C  0.49293858  0.85082331  0.49974593    -0.02860
C1308       C  0.97484681  0.86321294  0.03613818     0.03960
N1309       N  0.95576618  0.84009458  0.08006333     0.66470
H1310       H  0.96477481  0.91064551  0.05892995     0.15370
H1311       H  0.52728556  0.86549398  0.43199042     0.15080
N1312       N  0.53798493  0.93638813  0.41087382     0.74170
O1313       O  0.95784155  0.85748337  0.12082519    -0.39280
O1314       O  0.93282266  0.80287831  0.57727868    -0.39220
O1315       O  0.56412071  0.93098524  0.88969500    -0.39930
O1316       O  0.53125401  0.96237611  0.39351167    -0.39990
C1317       C  0.57711318  0.97099030  0.03194467    -0.12270
C1318       C  0.57274795  0.49553899  0.49757682     0.04730
C1319       C  0.60255519  0.51595209  0.46038301    -0.07560
C1320       C  0.63623520  0.51181850  0.46045756    -0.08300
C1321       C  0.64076575  0.48813511  0.49559339    -0.02860
C1322       C  0.61068613  0.96691351  0.03136042     0.03960
N1323       N  0.61527502  0.94444394  0.07008682     0.66470
H1324       H  0.55475734  0.95606717  0.06078909     0.15370
H1325       H  0.65977990  0.52780411  0.43324868     0.15080
N1326       N  0.60051382  0.54220550  0.42415174     0.74170
O1327       O  0.60655296  0.94823350  0.11449571    -0.39280
O1328       O  0.62175160  0.91645892  0.55932598    -0.39220
O1329       O  0.63100097  0.56569113  0.89897697    -0.39930
O1330       O  0.56849790  0.54159831  0.41565618    -0.39990
C1331       C  0.85973884  0.97208223  0.45327705    -0.12270
C1332       C  0.85650788  0.50196557  0.47935635     0.04730
C1333       C  0.89145969  0.53840125  0.98760644    -0.07560
C1334       C  0.92766738  0.54215295  0.97374037    -0.08300
C1335       C  0.93175384  0.50880776  0.46358560    -0.02860
C1336       C  0.89747408  0.97734768  0.44093757     0.03960
N1337       N  0.90147687  0.95809134  0.39722005     0.66470
H1338       H  0.83330399  0.94688234  0.43817910     0.15370
H1339       H  0.95101088  0.57187336  0.96662597     0.15080
N1340       N  0.89097505  0.57218199  0.00895163     0.74170
O1341       O  0.87267830  0.92527183  0.38290947    -0.39280
O1342       O  0.92951688  0.97832821  0.36687218    -0.39220
O1343       O  0.87756673  0.57022362  0.05257559    -0.39930
O1344       O  0.90762569  0.60512357  0.98641066    -0.39990
C1345       C  0.96549881  0.96710513  0.48051629     0.02280
C1346       C  0.96819296  0.50528113  0.47988876     0.02280
C1347       C  0.00398307  0.53816790  0.50096022     0.02280
C1348       C  0.53779370  0.53484772  0.51533552     0.02280
C1349       C  0.53639733  0.99868036  0.50122115     0.02280
C1350       C  0.50003279  0.96456524  0.48815528     0.02280
O1351       O  0.81675889  0.78733273  0.00071946    -0.72950
O1352       O  0.71577926  0.68224214  0.00922053    -0.73930
O1353       O  0.76415827  0.73240257  0.93008848    -0.62550
O1354       O  0.76878782  0.73637493  0.57870348    -0.70960
O1355       O  0.73409264  0.76759076  0.58114529    -0.70510
O1356       O  0.73033666  0.76448362  0.93165197    -0.61760
O1357       O  0.68212855  0.71419823  0.01067341    -0.74270
O1358       O  0.78240400  0.81878604  0.00362316    -0.73050
Cu1359     Cu  0.76761857  0.73352296  0.00443206     1.04560
Cu1360     Cu  0.73104014  0.76737502  0.00665373     1.04330
C1361       C  0.81548995  0.81962254  0.00137699     0.93250
C1362       C  0.68285139  0.68182607  0.01350556     0.92390
C1363       C  0.74687453  0.74802269  0.90749081     0.84530
C1364       C  0.75152665  0.75182088  0.60320182     0.90810
O1365       O  0.68084606  0.95817411  0.99592810    -0.72950
O1366       O  0.78603865  0.96412887  0.98922012    -0.73930
O1367       O  0.73490086  0.96215037  0.56817447    -0.62550
O1368       O  0.73263928  0.96201582  0.91815744    -0.70960
O1369       O  0.76167343  0.52816008  0.91937464    -0.70510
O1370       O  0.76447669  0.52829756  0.56753091    -0.61760
O1371       O  0.81484631  0.53003768  0.48896449    -0.74270
O1372       O  0.71059331  0.52432557  0.99642118    -0.73050
Cu1373     Cu  0.73247882  0.95917521  0.99303582     1.04560
Cu1374     Cu  0.76397287  0.52994254  0.99327976     1.04330
C1375       C  0.67913279  0.49011648  0.99666590     0.93250
C1376       C  0.81727095  0.49843153  0.98684016     0.92390
C1377       C  0.74984231  0.49554144  0.59123627     0.84530
C1378       C  0.74701973  0.49536855  0.89550284     0.90810
C1379       C  0.81136221  0.62289515  0.74753924     0.03130
C1380       C  0.85329999  0.64457210  0.74891708    -0.13020
C1381       C  0.87474932  0.68670296  0.75184346     0.00630
C1382       C  0.85332720  0.70720241  0.75339209    -0.11550
C1383       C  0.81137544  0.68653920  0.75222316     0.03120
C1384       C  0.79086055  0.64437628  0.74928196    -0.10970
H1385       H  0.86936956  0.62852171  0.74770108     0.08710
H1386       H  0.86941908  0.73945554  0.75554081     0.06240
H1387       H  0.75872802  0.62817449  0.74835916     0.06090
O1388       O  0.49945577  0.77772845  0.82800997    -0.72950
O1389       O  0.00012405  0.77812167  0.67905572    -0.73930
O1390       O  0.93888303  0.74739908  0.75390825    -0.62550
O1391       O  0.55997085  0.80728211  0.75268829    -0.70960
O1392       O  0.55914458  0.74980980  0.75226383    -0.70510
O1393       O  0.93835855  0.69009266  0.75236241    -0.61760
O1394       O  0.99961629  0.72058528  0.67778003    -0.74270
O1395       O  0.49803018  0.71976082  0.82716864    -0.73050
Cu1396     Cu  0.99958840  0.77959892  0.75350108     1.04560
Cu1397     Cu  0.49873109  0.71805520  0.75240417     1.04330
C1398       C  0.49893792  0.74888778  0.85094522     0.93250
C1399       C  0.00019798  0.74959622  0.65510564     0.92390
C1400       C  0.91940557  0.70914548  0.75285008     0.84530
C1401       C  0.57873157  0.78800769  0.75218732     0.90810
C1402       C  0.68682460  0.87343558  0.74714779     0.03130
C1403       C  0.64492330  0.85206129  0.74819038    -0.13020
C1404       C  0.62330583  0.81006500  0.75134898     0.00630
C1405       C  0.64454200  0.78943010  0.75353015    -0.11550
C1406       C  0.68653969  0.81006693  0.75282028     0.03120
C1407       C  0.70718991  0.85204949  0.74956284    -0.10970
H1408       H  0.62902632  0.86823331  0.74650468     0.08710
H1409       H  0.62832418  0.75719683  0.75589185     0.06240
H1410       H  0.73934857  0.86820411  0.74890067     0.06090
O1411       O  0.77942894  0.77877740  0.68117849    -0.72950
O1412       O  0.77613417  0.77689207  0.83007787    -0.73930
O1413       O  0.80795036  0.74719766  0.75495303    -0.62550
O1414       O  0.74698810  0.80721736  0.75553414    -0.70960
O1415       O  0.69015774  0.74980771  0.75492201    -0.70510
O1416       O  0.75103975  0.68993721  0.75358751    -0.61760
O1417       O  0.71916871  0.71922840  0.82945963    -0.74270
O1418       O  0.72216457  0.72137005  0.67992423    -0.73050
Cu1419     Cu  0.77960289  0.77947647  0.75558468     1.04560
Cu1420     Cu  0.71868610  0.71805761  0.75449737     1.04330
C1421       C  0.75104228  0.75063678  0.65726917     0.93250
C1422       C  0.74722774  0.74804859  0.85316419     0.92390
C1423       C  0.78909683  0.70894391  0.75373359     0.84530
C1424       C  0.70892109  0.78799378  0.75468918     0.90810
O1425       O  0.71973834  0.49730317  0.81856545    -0.72950
O1426       O  0.72146156  0.99735508  0.66913366    -0.73930
O1427       O  0.69050362  0.93724413  0.74409248    -0.62550
O1428       O  0.75102035  0.55854343  0.74454650    -0.70960
O1429       O  0.80789553  0.55872582  0.74408546    -0.70510
O1430       O  0.74731103  0.93720242  0.74362591    -0.61760
O1431       O  0.77841722  0.99725366  0.66875505    -0.74270
O1432       O  0.77670690  0.99716025  0.81777566    -0.73050
Cu1433     Cu  0.71875451  0.99770366  0.74396168     1.04560
Cu1434     Cu  0.77961174  0.99771387  0.74342914     1.04330
C1435       C  0.74768446  0.49644527  0.84144036     0.93250
C1436       C  0.74984204  0.99658501  0.64555856     0.92390
C1437       C  0.70926439  0.91803187  0.74461123     0.84530
C1438       C  0.78907045  0.57797047  0.74510373     0.90810
O1439       O  0.52884431  0.81725898  0.50370887    -0.72950
O1440       O  0.53804259  0.72001637  0.50063031    -0.73930
O1441       O  0.53255836  0.76866518  0.92752412    -0.62550
O1442       O  0.53339552  0.76825778  0.57700427    -0.70960
O1443       O  0.96743791  0.73199343  0.57835965    -0.70510
O1444       O  0.96679620  0.73032503  0.92951892    -0.61760
O1445       O  0.97212405  0.68293810  0.00435398    -0.74270
O1446       O  0.96295006  0.78041507  0.00385886    -0.73050
Cu1447     Cu  0.53556158  0.76991687  0.50221325     1.04560
Cu1448     Cu  0.96499416  0.73009415  0.00411414     1.04330
C1449       C  0.49475459  0.81432781  0.00379113     0.93250
C1450       C  0.50630572  0.68607884  0.00222880     0.92390
C1451       C  0.49946638  0.74931588  0.90517832     0.84530
C1452       C  0.50041324  0.74996037  0.60097478     0.90810
C1453       C  0.64687529  0.60829724  0.02599250    -0.12270
C1454       C  0.64573652  0.64390574  0.02429300     0.04730
C1455       C  0.61111733  0.64288448  0.54344911    -0.07560
C1456       C  0.57787650  0.60592523  0.55509439    -0.08300
C1457       C  0.57570234  0.57037172  0.03886126    -0.02860
C1458       C  0.61306113  0.57276829  0.04156776     0.03960
N1459       N  0.61873236  0.54855366  0.57686156     0.66470
H1460       H  0.67502258  0.60918140  0.02219132     0.15370
H1461       H  0.55413879  0.60557644  0.57611467     0.15080
N1462       N  0.60911300  0.67830431  0.55263328     0.74170
O1463       O  0.65210492  0.55092974  0.08042114    -0.39280
O1464       O  0.59265787  0.53003735  0.61015179    -0.39220
O1465       O  0.60780404  0.69791657  0.01628651    -0.39930
O1466       O  0.59930860  0.68443449  0.59538826    -0.39990
C1467       C  0.90008377  0.92529187  0.52241689    -0.12270
C1468       C  0.92595958  0.92923842  0.98284332     0.04730
C1469       C  0.91481854  0.89627430  0.95004570    -0.07560
C1470       C  0.87892233  0.86095133  0.95842428    -0.08300
C1471       C  0.85268076  0.85789767  0.99644621    -0.02860
C1472       C  0.86297373  0.89067590  0.52847297     0.03960
N1473       N  0.83696770  0.88911693  0.56800696     0.66470
H1474       H  0.90851486  0.94989468  0.54814669     0.15370
H1475       H  0.87050574  0.83583966  0.93355177     0.15080
N1476       N  0.93851742  0.89792055  0.90752629     0.74170
O1477       O  0.85076727  0.90167277  0.61072223    -0.39280
O1478       O  0.80303759  0.88356164  0.05807659    -0.39220
O1479       O  0.93777081  0.86668675  0.39211067    -0.39930
O1480       O  0.95547502  0.92874734  0.88099840    -0.39990
C1481       C  0.99112741  0.62417595  0.54286433    -0.12270
C1482       C  0.50879692  0.64991956  0.00239891     0.04730
C1483       C  0.52722525  0.64016989  0.96318196    -0.07560
C1484       C  0.52695758  0.60406723  0.96570445    -0.08300
C1485       C  0.50748886  0.57735557  0.00490505    -0.02860
C1486       C  0.98986707  0.58757190  0.54489471     0.03960
N1487       N  0.97036273  0.56124358  0.58651739     0.66470
H1488       H  0.97768172  0.63257263  0.57272549     0.15370
H1489       H  0.53993848  0.59541512  0.93555905     0.15080
N1490       N  0.54418688  0.66489178  0.91964658     0.74170
O1491       O  0.94667184  0.56615086  0.61431601    -0.39280
O1492       O  0.97854265  0.53475643  0.59791263    -0.39220
O1493       O  0.53183486  0.68751841  0.90535324    -0.39930
O1494       O  0.56820348  0.66054937  0.89176551    -0.39990
C1495       C  0.97766832  0.90035836  0.53053635    -0.12270
C1496       C  0.49709891  0.92474580  0.98919266     0.04730
C1497       C  0.51573667  0.91227732  0.95305969    -0.07560
C1498       C  0.51323183  0.87540085  0.95927493    -0.08300
C1499       C  0.49293889  0.85081931  0.99975314    -0.02860
C1500       C  0.97484660  0.86321709  0.53613092     0.03960
N1501       N  0.95576841  0.84010010  0.58005786     0.66470
H1502       H  0.96477609  0.91065081  0.55892307     0.15370
H1503       H  0.52728995  0.86549188  0.93200069     0.15080
N1504       N  0.53798909  0.93638599  0.91088441     0.74170
O1505       O  0.95784121  0.85749003  0.62081797    -0.39280
O1506       O  0.93281429  0.80287404  0.07728036    -0.39220
O1507       O  0.56411271  0.93098400  0.38967943    -0.39930
O1508       O  0.53125570  0.96237119  0.89351844    -0.39990
C1509       C  0.57711676  0.97098678  0.53193989    -0.12270
C1510       C  0.57274216  0.49554217  0.99758321     0.04730
C1511       C  0.60255129  0.51596168  0.96039370    -0.07560
C1512       C  0.63623455  0.51183360  0.96046956    -0.08300
C1513       C  0.64076545  0.48814792  0.99560155    -0.02860
C1514       C  0.61068742  0.96690565  0.53135530     0.03960
N1515       N  0.61527544  0.94443721  0.57008417     0.66470
H1516       H  0.55476151  0.95606742  0.56078604     0.15370
H1517       H  0.65977987  0.52782294  0.93326268     0.15080
N1518       N  0.60050721  0.54221440  0.92416405     0.74170
O1519       O  0.60654800  0.94822437  0.61449140    -0.39280
O1520       O  0.62174358  0.91646115  0.05932526    -0.39220
O1521       O  0.63100567  0.56567215  0.39895466    -0.39930
O1522       O  0.56848672  0.54159466  0.91565749    -0.39990
C1523       C  0.85971728  0.97205440  0.95329042    -0.12270
C1524       C  0.85649528  0.50195261  0.97934522     0.04730
C1525       C  0.89146820  0.53840950  0.48765260    -0.07560
C1526       C  0.92768095  0.54217056  0.47379256    -0.08300
C1527       C  0.93173490  0.50878267  0.96356788    -0.02860
C1528       C  0.89744848  0.97731258  0.94094368     0.03960
N1529       N  0.90143882  0.95804273  0.89723170     0.66470
H1530       H  0.83327723  0.94684688  0.93821299     0.15370
H1531       H  0.95102021  0.57189335  0.46669313     0.15080
N1532       N  0.89097449  0.57217757  0.50902585     0.74170
O1533       O  0.87263625  0.92521819  0.88294136    -0.39280
O1534       O  0.92946829  0.97827116  0.86686729    -0.39220
O1535       O  0.87753836  0.57018924  0.55264025    -0.39930
O1536       O  0.90764252  0.60513564  0.48652225    -0.39990
loop_ 
_geom_bond_atom_site_label_1 
_geom_bond_atom_site_label_2 
_geom_bond_distance 
_geom_bond_site_symmetry_2 
_ccdc_geom_bond_type 
C1          C386   1.432       .  A
C1          C774   1.417       .  A
C1          C316   1.502       .  S
C2            C3   1.455   1_556  A
C2          C385   1.432   1_545  A
C2          C375   1.565       .  S
C3          C772   1.447       .  A
C3         C1101   1.460       .  S
C4          C771   1.447       .  A
C4          C389   1.424   1_545  A
C4          C305   1.565       .  S
C5            C6   1.416   1_554  A
C5          C388   1.424       .  A
C5          C742   1.483   1_554  S
C6          C769   1.417   1_455  A
C6          C344   1.491   1_455  S
O7          Cu15   2.002       .  S
O7           C17   1.278       .  A
O8          Cu15   2.002       .  S
O8           C18   1.278       .  A
O9          Cu15   2.005       .  S
O9           C19   1.275       .  A
O10        Cu207   2.000       .  S
O10          C20   1.275       .  A
O11        Cu208   2.009       .  S
O11          C20   1.277       .  A
O12         Cu16   2.019       .  S
O12          C19   1.278       .  A
O13         Cu16   1.985       .  S
O13          C18   1.274       .  A
O14         Cu16   1.993       .  S
O14          C17   1.274       .  A
Cu15        O202   2.000       .  S
Cu15        Cu16   2.375       .  S
Cu16        O203   2.009       .  S
C17         C127   1.468       .  S
C18         C110   1.481       .  S
C19          C78   1.461       .  S
C20          C77   1.455       .  S
O21         Cu29   1.993       .  S
O21         C415   1.274       .  A
O22         Cu29   1.998       .  S
O22         C416   1.275       .  A
O23        Cu221   2.024   1_554  S
O23         C417   1.280       .  A
O24         Cu29   2.018       .  S
O24         C418   1.279       .  A
O25         Cu30   1.991       .  S
O25          C34   1.273   1_545  A
O26        Cu222   2.000   1_554  S
O26          C33   1.274   1_545  A
O27        Cu222   1.982       .  S
O27         C224   1.277   1_545  A
O28         Cu30   1.980       .  S
O28          C31   1.276   1_545  A
Cu29        O215   2.024       .  S
Cu29       Cu414   2.378       .  S
Cu30        O218   2.000       .  S
Cu30        O219   1.982       .  S
Cu30       Cu413   2.378   1_545  S
C31         C169   1.459       .  S
C31         O405   1.274       .  A
C32         C180   1.475   1_565  S
C32         O406   1.275       .  A
C32         O219   1.277   1_565  A
C33         C476   1.461       .  S
C33         O407   1.280       .  A
C34          C91   1.455       .  S
C34         O408   1.279       .  A
C35          C36   1.414       .  A
C35          C40   1.415       .  A
C35          C94   1.508       .  S
C36          C37   1.415       .  A
C36          H41   1.083       .  S
C37          C38   1.414       .  A
C37          C56   1.505       .  S
C38          C39   1.414       .  A
C38          H42   1.083       .  S
C39          C40   1.416       .  A
C39          C79   1.506       .  S
C40          H43   1.083       .  S
O44        Cu820   2.006       .  S
O44          C54   1.276       .  A
O45         Cu52   2.003       .  S
O45          C55   1.275       .  A
O46         Cu52   2.045       .  S
O46          C56   1.283       .  A
O47        Cu820   2.036   1_455  S
O47          C57   1.282       .  A
O48         Cu53   2.035   1_455  S
O48          C57   1.281       .  A
O49        Cu821   2.036       .  S
O49          C56   1.281       .  A
O50        Cu821   2.010       .  S
O50          C55   1.277       .  A
O51         Cu53   2.012       .  S
O51          C54   1.277       .  A
Cu52        O812   2.006       .  S
Cu52        O815   2.036       .  S
Cu52       Cu821   2.371       .  S
Cu53        O817   2.036       .  S
Cu53        O818   2.010       .  S
Cu53       Cu820   2.371       .  S
C54         C107   1.459       .  S
C55         C876   1.456       .  S
C57          C60   1.501       .  S
C58          C59   1.411       .  A
C58          C63   1.410       .  A
C58          C93   1.497       .  S
C59          C60   1.411       .  A
C59          H64   1.083       .  S
C60          C61   1.414       .  A
C61          C62   1.414       .  A
C61          H65   1.083       .  S
C62          C63   1.411       .  A
C62          C80   1.501       .  S
C63          H66   1.083       .  S
O67         Cu75   2.001       .  S
O67          C77   1.275       .  A
O68         Cu75   2.006       .  S
O68          C78   1.276       .  A
O69         Cu75   2.045       .  S
O69          C79   1.283       .  A
O70         Cu75   2.038       .  S
O70          C80   1.283       .  A
O71         Cu76   2.033       .  S
O71          C80   1.280       .  A
O72         Cu76   2.041       .  S
O72          C79   1.282       .  A
O73         Cu76   2.017       .  S
O73          C78   1.277       .  A
O74         Cu76   2.009       .  S
O74          C77   1.277       .  A
Cu75        Cu76   2.371       .  S
O81        Cu473   2.008       .  S
O81          C91   1.276       .  A
O82         Cu89   2.014       .  S
O82          C92   1.277       .  A
O83         Cu89   2.029       .  S
O83          C93   1.281       .  A
O84        Cu473   2.041   1_545  S
O84          C94   1.282       .  A
O85        Cu474   2.048   1_545  S
O85          C94   1.283       .  A
O86         Cu90   2.030       .  S
O86          C93   1.281       .  A
O87         Cu90   2.010       .  S
O87          C92   1.276       .  A
O88         Cu90   2.001       .  S
O88         C475   1.275       .  A
Cu89        O465   2.008       .  S
Cu89        O468   2.041       .  S
Cu89        Cu90   2.371       .  S
Cu90        O469   2.048       .  S
C91         O472   1.275       .  A
C92         C417   1.461       .  S
O95        Cu103   1.982       .  S
O95         C297   1.275   1_455  A
O96        Cu103   1.987       .  S
O96         C298   1.274       .  A
O97        Cu295   2.013       .  S
O97         C107   1.278   1_455  A
O98        Cu103   2.012       .  S
O98         C108   1.278       .  A
O99        Cu296   2.000       .  S
O99         C876   1.275       .  A
O100       Cu104   2.006       .  S
O100        C875   1.276       .  A
O101       Cu104   1.984       .  S
O101        C874   1.275       .  A
O102       Cu104   1.994       .  S
O102        C873   1.275       .  A
Cu103       O289   2.013   1_554  S
Cu103     Cu1064   2.381   1_455  S
Cu104       O291   2.000       .  S
Cu104     Cu1063   2.381       .  S
C105        C155   1.458       .  S
C105        O287   1.275   1_655  A
C105        O870   1.275       .  A
C106        C138   1.455       .  S
C106        O288   1.274       .  A
C106        O869   1.275   1_455  A
C107        O868   1.276       .  A
C108        C823   1.456       .  S
C108        O867   1.275   1_455  A
C109        C110   1.406       .  A
C109        C114   1.406       .  A
C109        H116   1.083       .  S
C110        C303   1.417       .  A
C111        C112   1.399       .  A
C111        C302   1.417       .  A
C111        N118   1.434       .  S
C112        C305   1.404       .  A
C112        H117   1.069       .  S
C113        C114   1.415       .  A
C113        C304   1.404       .  A
C113        C196   1.565       .  S
C114        N307   1.440       .  S
N115        C306   1.440       .  S
N115        O120   1.263       .  A
N115        O311   1.263       .  A
N118        O122   1.262       .  A
N118        O313   1.262       .  A
O119        N307   1.263       .  A
O121        N310   1.262       .  A
C123        C128   1.401       .  A
C123        C316   1.407   1_554  A
C123        H130   1.084       .  S
C124        C125   1.425       .  A
C124        C315   1.407       .  A
C124        C193   1.502       .  S
C125        C126   1.397       .  A
C125        N132   1.438       .  S
C126        C127   1.395       .  A
C126        H131   1.084       .  S
C127        C320   1.412       .  A
C128        C319   1.412   1_554  A
C128        N129   1.435       .  S
N129        O133   1.262       .  A
N129        O326   1.262       .  A
N132        O136   1.258       .  A
N132        O327   1.263       .  A
O134        N321   1.262       .  A
O135        N324   1.263       .  A
C137        C142   1.398       .  A
C137       C1098   1.401       .  A
C137        H144   1.084       .  S
C138        C139   1.416       .  A
C138       C1097   1.401   1_455  A
C139        C140   1.398       .  A
C139        N146   1.445       .  S
C140        C141   1.402       .  A
C140        H145   1.084       .  S
C141       C1102   1.422   1_455  A
C141        C963   1.460       .  S
C142       C1101   1.422       .  A
C142        N143   1.445       .  S
N143        O147   1.263       .  A
N143        O148   1.262       .  A
N146        O149   1.262       .  A
N146        O150   1.263       .  A
C151        C156   1.399       .  A
C151       C1112   1.406   1_554  A
C151        H158   1.084       .  S
C152        C153   1.422   1_655  A
C152       C1111   1.406       .  A
C152        C198   1.491   1_655  S
C153        C154   1.396       .  A
C153        N160   1.444       .  S
C154        C155   1.398   1_455  A
C154        H159   1.084       .  S
C155       C1116   1.410       .  A
C156       C1115   1.410   1_554  A
C156        N157   1.440       .  S
N157        O161   1.263       .  A
N157        O354   1.261       .  A
N160        O164   1.260       .  A
N160        O355   1.263       .  A
O162        N349   1.261       .  A
O163        N352   1.263       .  A
C165        C170   1.395       .  A
C165        C742   1.408   1_554  A
C165        H172   1.083       .  S
C166        C167   1.423   1_565  A
C166        C741   1.408       .  A
C166        C581   1.483       .  S
C167        C168   1.400       .  A
C167        N174   1.450       .  S
C168        C169   1.400   1_545  A
C168        H173   1.084       .  S
C169        C746   1.408       .  A
C170        C745   1.408   1_554  A
C170        N171   1.437       .  S
N171        O175   1.263       .  A
N171        O368   1.262       .  A
N174        O178   1.261       .  A
N174        O369   1.263       .  A
O176        N363   1.262       .  A
O177        N366   1.263       .  A
C179        C184   1.412       .  A
C179        C564   1.406       .  A
C179        H186   1.084       .  S
C180        C563   1.406   1_545  A
C180        C373   1.404       .  A
C181        C182   1.388       .  A
C181        C372   1.404       .  A
C181        N188   1.433   1_556  S
C182        C375   1.405       .  A
C182        H187   1.066       .  S
C183        C374   1.405       .  A
C183        C568   1.421   1_545  A
C183        C194   1.565       .  S
C184        C567   1.421       .  A
C184        N185   1.433       .  S
N185        O189   1.263       .  A
N185        O190   1.263       .  A
N188        O191   1.263       .  A
N188        O192   1.261   1_554  A
C193        C578   1.432       .  A
C193        C966   1.417       .  A
C194        C577   1.432   1_545  A
C194        C195   1.455       .  A
C195        C964   1.447       .  A
C195        C909   1.460       .  S
C196        C963   1.447       .  A
C196        C581   1.424   1_545  A
C197        C580   1.424       .  A
C197        C198   1.416       .  A
C197        C550   1.483       .  S
C198        C961   1.417   1_455  A
O199       Cu207   2.002       .  S
O199        C209   1.278       .  A
O200       Cu207   2.002       .  S
O200        C210   1.278       .  A
O201       Cu207   2.006   1_556  S
O201        C211   1.275       .  A
O202        C212   1.275       .  A
O203        C212   1.277       .  A
O204       Cu208   2.019   1_556  S
O204        C211   1.278       .  A
O205       Cu208   1.985       .  S
O205        C210   1.274       .  A
O206       Cu208   1.993       .  S
O206        C209   1.274       .  A
Cu207      Cu208   2.375       .  S
C209        C319   1.468   1_554  S
C210        C302   1.481       .  S
C211        C270   1.461       .  S
C212        C269   1.455       .  S
O213       Cu221   1.993       .  S
O213        C607   1.274       .  A
O214       Cu221   1.998       .  S
O214        C608   1.275       .  A
O215        C609   1.280       .  A
O216       Cu221   2.018       .  S
O216        C610   1.279       .  A
O217       Cu222   1.991       .  S
O217        C226   1.273   1_545  A
O218        C225   1.274   1_545  A
O220       Cu222   1.980       .  S
O220        C223   1.276   1_545  A
Cu221      Cu606   2.378       .  S
Cu222      Cu605   2.378   1_545  S
C223        C361   1.459       .  S
C223        O597   1.274       .  A
C224        C372   1.475   1_565  S
C224        O598   1.275       .  A
C225        C668   1.461       .  S
C225        O599   1.280       .  A
C226        C283   1.455       .  S
C226        O600   1.279       .  A
C227        C228   1.414       .  A
C227        C232   1.415       .  A
C227        C286   1.508       .  S
C228        C229   1.415       .  A
C228        H233   1.083       .  S
C229        C230   1.414       .  A
C229        C248   1.505       .  S
C230        C231   1.414       .  A
C230        H234   1.083       .  S
C231        C232   1.416       .  A
C231        C271   1.506       .  S
C232        H235   1.083       .  S
O236      Cu1012   2.006       .  S
O236        C246   1.276       .  A
O237       Cu244   2.003       .  S
O237        C247   1.275       .  A
O238       Cu244   2.045       .  S
O238        C248   1.283       .  A
O239      Cu1012   2.036   1_455  S
O239        C249   1.282       .  A
O240       Cu245   2.035   1_455  S
O240        C249   1.281       .  A
O241      Cu1013   2.036       .  S
O241        C248   1.281       .  A
O242      Cu1013   2.010       .  S
O242        C247   1.277       .  A
O243       Cu245   2.012       .  S
O243        C246   1.277       .  A
Cu244      O1004   2.006       .  S
Cu244      O1007   2.036       .  S
Cu244     Cu1013   2.371       .  S
Cu245      O1009   2.036       .  S
Cu245      O1010   2.010       .  S
Cu245     Cu1012   2.371       .  S
C246        C299   1.459       .  S
C247       C1068   1.456       .  S
C249        C252   1.501       .  S
C250        C251   1.411       .  A
C250        C255   1.410       .  A
C250        C285   1.497       .  S
C251        C252   1.411       .  A
C251        H256   1.083       .  S
C252        C253   1.414       .  A
C253        C254   1.414       .  A
C253        H257   1.083       .  S
C254        C255   1.411       .  A
C254        C272   1.501       .  S
C255        H258   1.083       .  S
O259       Cu267   2.001       .  S
O259        C269   1.275       .  A
O260       Cu267   2.006       .  S
O260        C270   1.276       .  A
O261       Cu267   2.045       .  S
O261        C271   1.283       .  A
O262       Cu267   2.038       .  S
O262        C272   1.283       .  A
O263       Cu268   2.033       .  S
O263        C272   1.280       .  A
O264       Cu268   2.041       .  S
O264        C271   1.282       .  A
O265       Cu268   2.017       .  S
O265        C270   1.277       .  A
O266       Cu268   2.009       .  S
O266        C269   1.277       .  A
Cu267      Cu268   2.371       .  S
O273       Cu665   2.008       .  S
O273        C283   1.276       .  A
O274       Cu281   2.014       .  S
O274        C284   1.277       .  A
O275       Cu281   2.029       .  S
O275        C285   1.281       .  A
O276       Cu665   2.041   1_545  S
O276        C286   1.282       .  A
O277       Cu666   2.048   1_545  S
O277        C286   1.283       .  A
O278       Cu282   2.030       .  S
O278        C285   1.281       .  A
O279       Cu282   2.010       .  S
O279        C284   1.276       .  A
O280       Cu282   2.001       .  S
O280        C667   1.275       .  A
Cu281       O657   2.008       .  S
Cu281       O660   2.041       .  S
Cu281      Cu282   2.371       .  S
Cu282       O661   2.048       .  S
C283        O664   1.275       .  A
C284        C609   1.461       .  S
O287       Cu295   1.982       .  S
O288       Cu295   1.987       .  S
O289        C299   1.278   1_455  A
O290       Cu295   2.012       .  S
O290        C300   1.278       .  A
O291       C1068   1.275       .  A
O292       Cu296   2.006   1_556  S
O292       C1067   1.276       .  A
O293       Cu296   1.984       .  S
O293       C1066   1.275       .  A
O294       Cu296   1.994       .  S
O294       C1065   1.275       .  A
Cu295      Cu872   2.381   1_455  S
Cu296      Cu871   2.381       .  S
C297        C347   1.458   1_554  S
C297       O1062   1.275       .  A
C298        C330   1.455       .  S
C298       O1061   1.275   1_455  A
C299       O1060   1.276       .  A
C300       C1015   1.456       .  S
C300       O1059   1.275   1_455  A
C301        C302   1.406       .  A
C301        C306   1.406       .  A
C301        H308   1.083       .  S
C303        C304   1.399       .  A
C303        N310   1.434       .  S
C304        H309   1.069       .  S
C305        C306   1.415       .  A
N307        O312   1.263       .  A
N310        O314   1.262       .  A
C315        C320   1.401       .  A
C315        H322   1.084       .  S
C316        C317   1.425       .  A
C317        C318   1.397       .  A
C317        N324   1.438       .  S
C318        C319   1.395       .  A
C318        H323   1.084       .  S
C320        N321   1.435       .  S
N321        O325   1.262       .  A
N324        O328   1.258       .  A
C329        C906   1.401       .  A
C329        C334   1.398       .  A
C329        H336   1.084       .  S
C330        C905   1.401   1_455  A
C330        C331   1.416   1_554  A
C331        C332   1.398       .  A
C331        N338   1.445       .  S
C332        C333   1.402   1_556  A
C332        H337   1.084       .  S
C333        C910   1.422   1_455  A
C333        C771   1.460       .  S
C334        C909   1.422       .  A
C334        N335   1.445       .  S
N335        O339   1.263       .  A
N335        O340   1.262       .  A
N338        O341   1.262       .  A
N338        O342   1.263       .  A
C343        C920   1.406       .  A
C343        C348   1.399       .  A
C343        H350   1.084       .  S
C344        C919   1.406   1_556  A
C344        C345   1.422   1_655  A
C345        C346   1.396       .  A
C345        N352   1.444       .  S
C346        C347   1.398   1_455  A
C346        H351   1.084       .  S
C347        C924   1.410   1_556  A
C348        C923   1.410       .  A
C348        N349   1.440       .  S
N349        O353   1.263       .  A
N352        O356   1.260       .  A
C357        C550   1.408       .  A
C357        C362   1.395       .  A
C357        H364   1.083       .  S
C358        C549   1.408   1_556  A
C358        C359   1.423   1_565  A
C358        C389   1.483   1_556  S
C359        C360   1.400       .  A
C359        N366   1.450       .  S
C360        C361   1.400   1_545  A
C360        H365   1.084       .  S
C361        C554   1.408   1_556  A
C362        C553   1.408       .  A
C362        N363   1.437       .  S
N363        O367   1.263       .  A
N366        O370   1.261       .  A
C371        C756   1.406       .  A
C371        C376   1.412       .  A
C371        H378   1.084       .  S
C372        C755   1.406   1_545  A
C373        C374   1.388       .  A
C373        N380   1.433       .  S
C374        H379   1.066       .  S
C375        C760   1.421   1_545  A
C376        C759   1.421       .  A
C376        N377   1.433       .  S
N377        O381   1.263       .  A
N377        O382   1.263       .  A
N380        O383   1.263       .  A
N380        O384   1.261       .  A
C385       C1158   1.417       .  A
C385        C700   1.502       .  S
C386        C387   1.455   1_556  A
C386        C759   1.565       .  S
C387       C1156   1.447       .  A
C387       C1485   1.460       .  S
C388       C1155   1.447       .  A
C388        C689   1.565       .  S
C389        C390   1.416   1_554  A
C390       C1153   1.417   1_455  A
C390        C728   1.491   1_455  S
O391       Cu399   2.002       .  S
O391        C401   1.278       .  A
O392       Cu399   2.002       .  S
O392        C402   1.278       .  A
O393       Cu399   2.005       .  S
O393        C403   1.275       .  A
O394       Cu591   2.000       .  S
O394        C404   1.275       .  A
O395       Cu592   2.009       .  S
O395        C404   1.277       .  A
O396       Cu400   2.019       .  S
O396        C403   1.278       .  A
O397       Cu400   1.985       .  S
O397        C402   1.274       .  A
O398       Cu400   1.993       .  S
O398        C401   1.274       .  A
Cu399       O586   2.000       .  S
Cu399      Cu400   2.375       .  S
Cu400       O587   2.009       .  S
C401        C511   1.468       .  S
C402        C494   1.481       .  S
C403        C462   1.461       .  S
C404        C461   1.455       .  S
O405       Cu413   1.993       .  S
O406       Cu413   1.998       .  S
O407       Cu605   2.024   1_554  S
O408       Cu413   2.018       .  S
O409       Cu414   1.991       .  S
O409        C418   1.273       .  A
O410       Cu606   2.000   1_554  S
O410        C417   1.274       .  A
O411       Cu606   1.982       .  S
O411        C608   1.277       .  A
O412       Cu414   1.980       .  S
O412        C415   1.276       .  A
Cu413       O599   2.024       .  S
Cu414       O602   2.000       .  S
Cu414       O603   1.982       .  S
C415        C553   1.459       .  S
C416        C564   1.475       .  S
C416        O603   1.277       .  A
C418        C475   1.455       .  S
C419        C420   1.414       .  A
C419        C424   1.415       .  A
C419        C478   1.508       .  S
C420        C421   1.415       .  A
C420        H425   1.083       .  S
C421        C422   1.414       .  A
C421        C440   1.505       .  S
C422        C423   1.414       .  A
C422        H426   1.083       .  S
C423        C424   1.416       .  A
C423        C463   1.506       .  S
C424        H427   1.083       .  S
O428      Cu1204   2.006       .  S
O428        C438   1.276       .  A
O429       Cu436   2.003       .  S
O429        C439   1.275       .  A
O430       Cu436   2.045       .  S
O430        C440   1.283       .  A
O431      Cu1204   2.036   1_455  S
O431        C441   1.282       .  A
O432       Cu437   2.035   1_455  S
O432        C441   1.281       .  A
O433      Cu1205   2.036       .  S
O433        C440   1.281       .  A
O434      Cu1205   2.010       .  S
O434        C439   1.277       .  A
O435       Cu437   2.012       .  S
O435        C438   1.277       .  A
Cu436      O1196   2.006       .  S
Cu436      O1199   2.036       .  S
Cu436     Cu1205   2.371       .  S
Cu437      O1201   2.036       .  S
Cu437      O1202   2.010       .  S
Cu437     Cu1204   2.371       .  S
C438        C491   1.459       .  S
C439       C1260   1.456       .  S
C441        C444   1.501       .  S
C442        C443   1.411       .  A
C442        C447   1.410       .  A
C442        C477   1.497       .  S
C443        C444   1.411       .  A
C443        H448   1.083       .  S
C444        C445   1.414       .  A
C445        C446   1.414       .  A
C445        H449   1.083       .  S
C446        C447   1.411       .  A
C446        C464   1.501       .  S
C447        H450   1.083       .  S
O451       Cu459   2.001       .  S
O451        C461   1.275       .  A
O452       Cu459   2.006       .  S
O452        C462   1.276       .  A
O453       Cu459   2.045       .  S
O453        C463   1.283       .  A
O454       Cu459   2.038       .  S
O454        C464   1.283       .  A
O455       Cu460   2.033       .  S
O455        C464   1.280       .  A
O456       Cu460   2.041       .  S
O456        C463   1.282       .  A
O457       Cu460   2.017       .  S
O457        C462   1.277       .  A
O458       Cu460   2.009       .  S
O458        C461   1.277       .  A
Cu459      Cu460   2.371       .  S
O465        C475   1.276       .  A
O466       Cu473   2.014       .  S
O466        C476   1.277       .  A
O467       Cu473   2.029       .  S
O467        C477   1.281       .  A
O468        C478   1.282       .  A
O469        C478   1.283       .  A
O470       Cu474   2.030       .  S
O470        C477   1.281       .  A
O471       Cu474   2.010       .  S
O471        C476   1.276       .  A
O472       Cu474   2.001       .  S
Cu473      Cu474   2.371       .  S
O479       Cu487   1.982       .  S
O479        C681   1.275   1_455  A
O480       Cu487   1.987       .  S
O480        C682   1.274       .  A
O481       Cu679   2.013       .  S
O481        C491   1.278   1_455  A
O482       Cu487   2.012       .  S
O482        C492   1.278       .  A
O483       Cu680   2.000       .  S
O483       C1260   1.275       .  A
O484       Cu488   2.006       .  S
O484       C1259   1.276       .  A
O485       Cu488   1.984       .  S
O485       C1258   1.275       .  A
O486       Cu488   1.994       .  S
O486       C1257   1.275       .  A
Cu487       O673   2.013   1_554  S
Cu487     Cu1448   2.381   1_455  S
Cu488       O675   2.000       .  S
Cu488     Cu1447   2.381       .  S
C489        C539   1.458       .  S
C489        O671   1.275   1_655  A
C489       O1254   1.275       .  A
C490        C522   1.455       .  S
C490        O672   1.274       .  A
C490       O1253   1.275   1_455  A
C491       O1252   1.276       .  A
C492       C1207   1.456       .  S
C492       O1251   1.275   1_455  A
C493        C494   1.406       .  A
C493        C498   1.406       .  A
C493        H500   1.083       .  S
C494        C687   1.417       .  A
C495        C686   1.417       .  A
C495        C496   1.399       .  A
C495        N502   1.434       .  S
C496        C689   1.404       .  A
C496        H501   1.069       .  S
C497        C688   1.404       .  A
C497        C498   1.415       .  A
C497        C580   1.565       .  S
C498        N691   1.440       .  S
N499        C690   1.440       .  S
N499        O695   1.263       .  A
N499        O504   1.263       .  A
N502        O697   1.262       .  A
N502        O506   1.262       .  A
O503        N691   1.263       .  A
O505        N694   1.262       .  A
C507        C700   1.407   1_554  A
C507        C512   1.401       .  A
C507        H514   1.084       .  S
C508        C699   1.407       .  A
C508        C509   1.425       .  A
C508        C577   1.502       .  S
C509        C510   1.397       .  A
C509        N516   1.438       .  S
C510        C511   1.395       .  A
C510        H515   1.084       .  S
C511        C704   1.412       .  A
C512        C703   1.412   1_554  A
C512        N513   1.435       .  S
N513        O517   1.262       .  A
N513        O710   1.262       .  A
N516        O711   1.263       .  A
N516        O520   1.258       .  A
O518        N705   1.262       .  A
O519        N708   1.263       .  A
C521       C1482   1.401       .  A
C521        C526   1.398       .  A
C521        H528   1.084       .  S
C522       C1481   1.401   1_455  A
C522        C523   1.416       .  A
C523        C524   1.398       .  A
C523        N530   1.445       .  S
C524        C525   1.402       .  A
C524        H529   1.084       .  S
C525       C1486   1.422   1_455  A
C525       C1347   1.460       .  S
C526       C1485   1.422       .  A
C526        N527   1.445       .  S
N527        O531   1.263       .  A
N527        O532   1.262       .  A
N530        O533   1.262       .  A
N530        O534   1.263       .  A
C535       C1496   1.406   1_554  A
C535        C540   1.399       .  A
C535        H542   1.084       .  S
C536       C1495   1.406       .  A
C536        C537   1.422   1_655  A
C536        C582   1.491   1_655  S
C537        C538   1.396       .  A
C537        N544   1.444       .  S
C538        C539   1.398   1_455  A
C538        H543   1.084       .  S
C539       C1500   1.410       .  A
C540       C1499   1.410   1_554  A
C540        N541   1.440       .  S
N541        O545   1.263       .  A
N541        O738   1.261       .  A
N544        O739   1.263       .  A
N544        O548   1.260       .  A
O546        N733   1.261       .  A
O547        N736   1.263       .  A
C549        C554   1.395       .  A
C549        H556   1.083       .  S
C550        C551   1.423       .  A
C551        C552   1.400       .  A
C551        N558   1.450       .  S
C552        C553   1.400       .  A
C552        H557   1.084       .  S
C554        N555   1.437       .  S
N555        O559   1.263       .  A
N555        O752   1.262       .  A
N558        O753   1.263       .  A
N558        O562   1.261       .  A
O560        N747   1.262       .  A
O561        N750   1.263       .  A
C563        C568   1.412       .  A
C563        H570   1.084       .  S
C564        C757   1.404       .  A
C565        C756   1.404       .  A
C565        C566   1.388       .  A
C565        N572   1.433   1_556  S
C566        C759   1.405       .  A
C566        H571   1.066       .  S
C567        C758   1.405       .  A
C567        C578   1.565       .  S
C568        N569   1.433       .  S
N569        O573   1.263       .  A
N569        O574   1.263       .  A
N572        O575   1.263       .  A
N572        O576   1.261   1_554  A
C577       C1350   1.417       .  A
C578        C579   1.455       .  A
C579       C1348   1.447       .  A
C579       C1293   1.460       .  S
C580       C1347   1.447       .  A
C581        C582   1.416       .  A
C582       C1345   1.417   1_455  A
O583       Cu591   2.002       .  S
O583        C593   1.278       .  A
O584       Cu591   2.002       .  S
O584        C594   1.278       .  A
O585       Cu591   2.006   1_556  S
O585        C595   1.275       .  A
O586        C596   1.275       .  A
O587        C596   1.277       .  A
O588       Cu592   2.019   1_556  S
O588        C595   1.278       .  A
O589       Cu592   1.985       .  S
O589        C594   1.274       .  A
O590       Cu592   1.993       .  S
O590        C593   1.274       .  A
Cu591      Cu592   2.375       .  S
C593        C703   1.468   1_554  S
C594        C686   1.481       .  S
C595        C654   1.461       .  S
C596        C653   1.455       .  S
O597       Cu605   1.993       .  S
O598       Cu605   1.998       .  S
O600       Cu605   2.018       .  S
O601       Cu606   1.991       .  S
O601        C610   1.273       .  A
O602        C609   1.274       .  A
O604       Cu606   1.980       .  S
O604        C607   1.276       .  A
C607        C745   1.459       .  S
C608        C756   1.475       .  S
C610        C667   1.455       .  S
C611        C612   1.414       .  A
C611        C616   1.415       .  A
C611        C670   1.508       .  S
C612        C613   1.415       .  A
C612        H617   1.083       .  S
C613        C614   1.414       .  A
C613        C632   1.505       .  S
C614        C615   1.414       .  A
C614        H618   1.083       .  S
C615        C616   1.416       .  A
C615        C655   1.506       .  S
C616        H619   1.083       .  S
O620      Cu1396   2.006       .  S
O620        C630   1.276       .  A
O621       Cu628   2.003       .  S
O621        C631   1.275       .  A
O622       Cu628   2.045       .  S
O622        C632   1.283       .  A
O623      Cu1396   2.036   1_455  S
O623        C633   1.282       .  A
O624       Cu629   2.035   1_455  S
O624        C633   1.281       .  A
O625      Cu1397   2.036       .  S
O625        C632   1.281       .  A
O626      Cu1397   2.010       .  S
O626        C631   1.277       .  A
O627       Cu629   2.012       .  S
O627        C630   1.277       .  A
Cu628      O1388   2.006       .  S
Cu628      O1391   2.036       .  S
Cu628     Cu1397   2.371       .  S
Cu629      O1393   2.036       .  S
Cu629      O1394   2.010       .  S
Cu629     Cu1396   2.371       .  S
C630        C683   1.459       .  S
C631       C1452   1.456       .  S
C633        C636   1.501       .  S
C634        C635   1.411       .  A
C634        C639   1.410       .  A
C634        C669   1.497       .  S
C635        C636   1.411       .  A
C635        H640   1.083       .  S
C636        C637   1.414       .  A
C637        C638   1.414       .  A
C637        H641   1.083       .  S
C638        C639   1.411       .  A
C638        C656   1.501       .  S
C639        H642   1.083       .  S
O643       Cu651   2.001       .  S
O643        C653   1.275       .  A
O644       Cu651   2.006       .  S
O644        C654   1.276       .  A
O645       Cu651   2.045       .  S
O645        C655   1.283       .  A
O646       Cu651   2.038       .  S
O646        C656   1.283       .  A
O647       Cu652   2.033       .  S
O647        C656   1.280       .  A
O648       Cu652   2.041       .  S
O648        C655   1.282       .  A
O649       Cu652   2.017       .  S
O649        C654   1.277       .  A
O650       Cu652   2.009       .  S
O650        C653   1.277       .  A
Cu651      Cu652   2.371       .  S
O657        C667   1.276       .  A
O658       Cu665   2.014       .  S
O658        C668   1.277       .  A
O659       Cu665   2.029       .  S
O659        C669   1.281       .  A
O660        C670   1.282       .  A
O661        C670   1.283       .  A
O662       Cu666   2.030       .  S
O662        C669   1.281       .  A
O663       Cu666   2.010       .  S
O663        C668   1.276       .  A
O664       Cu666   2.001       .  S
Cu665      Cu666   2.371       .  S
O671       Cu679   1.982       .  S
O672       Cu679   1.987       .  S
O673        C683   1.278   1_455  A
O674       Cu679   2.012       .  S
O674        C684   1.278       .  A
O675       C1452   1.275       .  A
O676       Cu680   2.006   1_556  S
O676       C1451   1.276       .  A
O677       Cu680   1.984       .  S
O677       C1450   1.275       .  A
O678       Cu680   1.994       .  S
O678       C1449   1.275       .  A
Cu679     Cu1256   2.381   1_455  S
Cu680     Cu1255   2.381       .  S
C681        C731   1.458   1_554  S
C681       O1446   1.275       .  A
C682        C714   1.455       .  S
C682       O1445   1.275   1_455  A
C683       O1444   1.276       .  A
C684       C1399   1.456       .  S
C684       O1443   1.275   1_455  A
C685        C686   1.406       .  A
C685        C690   1.406       .  A
C685        H692   1.083       .  S
C687        C688   1.399       .  A
C687        N694   1.434       .  S
C688        H693   1.069       .  S
C689        C690   1.415       .  A
N691        O696   1.263       .  A
N694        O698   1.262       .  A
C699        C704   1.401       .  A
C699        H706   1.084       .  S
C700        C701   1.425       .  A
C701        C702   1.397       .  A
C701        N708   1.438       .  S
C702        C703   1.395       .  A
C702        H707   1.084       .  S
C704        N705   1.435       .  S
N705        O709   1.262       .  A
N708        O712   1.258       .  A
C713       C1290   1.401       .  A
C713        C718   1.398       .  A
C713        H720   1.084       .  S
C714       C1289   1.401   1_455  A
C714        C715   1.416   1_554  A
C715        C716   1.398       .  A
C715        N722   1.445       .  S
C716        C717   1.402   1_556  A
C716        H721   1.084       .  S
C717       C1294   1.422   1_455  A
C717       C1155   1.460       .  S
C718       C1293   1.422       .  A
C718        N719   1.445       .  S
N719        O723   1.263       .  A
N719        O724   1.262       .  A
N722        O725   1.262       .  A
N722        O726   1.263       .  A
C727       C1304   1.406       .  A
C727        C732   1.399       .  A
C727        H734   1.084       .  S
C728       C1303   1.406   1_556  A
C728        C729   1.422   1_655  A
C729        C730   1.396       .  A
C729        N736   1.444       .  S
C730        C731   1.398   1_455  A
C730        H735   1.084       .  S
C731       C1308   1.410   1_556  A
C732       C1307   1.410       .  A
C732        N733   1.440       .  S
N733        O737   1.263       .  A
N736        O740   1.260       .  A
C741        C746   1.395       .  A
C741        H748   1.083       .  S
C742        C743   1.423       .  A
C743        C744   1.400       .  A
C743        N750   1.450       .  S
C744        C745   1.400       .  A
C744        H749   1.084       .  S
C746        N747   1.437       .  S
N747        O751   1.263       .  A
N750        O754   1.261       .  A
C755        C760   1.412       .  A
C755        H762   1.084       .  S
C757        C758   1.388       .  A
C757        N764   1.433       .  S
C758        H763   1.066       .  S
C760        N761   1.433       .  S
N761        O765   1.263       .  A
N761        O766   1.263       .  A
N764        O767   1.263       .  A
N764        O768   1.261       .  A
C769       C1154   1.432       .  A
C769       C1084   1.502       .  S
C770       C1153   1.432   1_545  A
C770        C771   1.455   1_656  A
C770       C1143   1.565       .  S
C772       C1157   1.424   1_545  A
C772       C1073   1.565       .  S
C773       C1156   1.424       .  A
C773        C774   1.416   1_554  A
C773       C1510   1.483   1_554  S
C774       C1112   1.491       .  S
O775       Cu783   2.002       .  S
O775        C785   1.278       .  A
O776       Cu783   2.002       .  S
O776        C786   1.278       .  A
O777       Cu783   2.005       .  S
O777        C787   1.275       .  A
O778       Cu975   2.000       .  S
O778        C788   1.275       .  A
O779       Cu976   2.009       .  S
O779        C788   1.277       .  A
O780       Cu784   2.019       .  S
O780        C787   1.278       .  A
O781       Cu784   1.985       .  S
O781        C786   1.274       .  A
O782       Cu784   1.993       .  S
O782        C785   1.274       .  A
Cu783       O970   2.000       .  S
Cu783      Cu784   2.375       .  S
Cu784       O971   2.009       .  S
C785        C895   1.468       .  S
C786        C878   1.481       .  S
C787        C846   1.461       .  S
C788        C845   1.455       .  S
O789       Cu797   1.993       .  S
O789       C1183   1.274       .  A
O790       Cu797   1.998       .  S
O790       C1184   1.275       .  A
O791       Cu989   2.024   1_554  S
O791       C1185   1.280       .  A
O792       Cu797   2.018       .  S
O792       C1186   1.279       .  A
O793       Cu798   1.991       .  S
O793        C802   1.273   1_545  A
O794       Cu990   2.000   1_554  S
O794        C801   1.274   1_545  A
O795       Cu990   1.982       .  S
O795        C992   1.277   1_545  A
O796       Cu798   1.980       .  S
O796        C799   1.276   1_545  A
Cu797       O983   2.024       .  S
Cu797     Cu1182   2.378       .  S
Cu798       O986   2.000       .  S
Cu798       O987   1.982       .  S
Cu798     Cu1181   2.378   1_545  S
C799        C937   1.459       .  S
C799       O1173   1.274       .  A
C800        C948   1.475   1_565  S
C800       O1174   1.275       .  A
C800        O987   1.277   1_565  A
C801       C1244   1.461       .  S
C801       O1175   1.280       .  A
C802        C859   1.455       .  S
C802       O1176   1.279       .  A
C803        C804   1.414       .  A
C803        C808   1.415       .  A
C803        C862   1.508       .  S
C804        C805   1.415       .  A
C804        H809   1.083       .  S
C805        C806   1.414       .  A
C805        C824   1.505       .  S
C806        C807   1.414       .  A
C806        H810   1.083       .  S
C807        C808   1.416       .  A
C807        C847   1.506       .  S
C808        H811   1.083       .  S
O812        C822   1.276       .  A
O813       Cu820   2.003   1_455  S
O813        C823   1.275       .  A
O814       Cu820   2.045       .  S
O814        C824   1.283       .  A
O815        C825   1.282       .  A
O816       Cu821   2.035       .  S
O816        C825   1.281       .  A
O817        C824   1.281       .  A
O818        C823   1.277   1_655  A
O819       Cu821   2.012       .  S
O819        C822   1.277       .  A
C822        C875   1.459       .  S
C825        C828   1.501       .  S
C826        C827   1.411       .  A
C826        C831   1.410       .  A
C826        C861   1.497       .  S
C827        C828   1.411       .  A
C827        H832   1.083       .  S
C828        C829   1.414       .  A
C829        C830   1.414       .  A
C829        H833   1.083       .  S
C830        C831   1.411       .  A
C830        C848   1.501       .  S
C831        H834   1.083       .  S
O835       Cu843   2.001       .  S
O835        C845   1.275       .  A
O836       Cu843   2.006       .  S
O836        C846   1.276       .  A
O837       Cu843   2.045       .  S
O837        C847   1.283       .  A
O838       Cu843   2.038       .  S
O838        C848   1.283       .  A
O839       Cu844   2.033       .  S
O839        C848   1.280       .  A
O840       Cu844   2.041       .  S
O840        C847   1.282       .  A
O841       Cu844   2.017       .  S
O841        C846   1.277       .  A
O842       Cu844   2.009       .  S
O842        C845   1.277       .  A
Cu843      Cu844   2.371       .  S
O849      Cu1241   2.008       .  S
O849        C859   1.276       .  A
O850       Cu857   2.014       .  S
O850        C860   1.277       .  A
O851       Cu857   2.029       .  S
O851        C861   1.281       .  A
O852      Cu1241   2.041   1_545  S
O852        C862   1.282       .  A
O853      Cu1242   2.048   1_545  S
O853        C862   1.283       .  A
O854       Cu858   2.030       .  S
O854        C861   1.281       .  A
O855       Cu858   2.010       .  S
O855        C860   1.276       .  A
O856       Cu858   2.001       .  S
O856       C1243   1.275       .  A
Cu857      O1233   2.008       .  S
Cu857      O1236   2.041       .  S
Cu857      Cu858   2.371       .  S
Cu858      O1237   2.048       .  S
C859       O1240   1.275       .  A
C860       C1185   1.461       .  S
O863       Cu871   1.982       .  S
O863       C1065   1.275       .  A
O864       Cu871   1.987       .  S
O864       C1066   1.274       .  A
O865      Cu1063   2.013       .  S
O865        C875   1.278       .  A
O866       Cu871   2.012       .  S
O866        C876   1.278       .  A
O867      Cu1064   2.000       .  S
O868       Cu872   2.006       .  S
O869       Cu872   1.984       .  S
O870       Cu872   1.994       .  S
Cu871      O1057   2.013   1_554  S
Cu872      O1059   2.000       .  S
C873        C923   1.458       .  S
C873       O1055   1.275       .  A
C874        C906   1.455       .  S
C874       O1056   1.274       .  A
C877        C878   1.406       .  A
C877        C882   1.406       .  A
C877        H884   1.083       .  S
C878       C1071   1.417       .  A
C879       C1070   1.417       .  A
C879        C880   1.399       .  A
C879        N886   1.434       .  S
C880       C1073   1.404       .  A
C880        H885   1.069       .  S
C881       C1072   1.404       .  A
C881        C882   1.415       .  A
C881        C964   1.565       .  S
C882       N1075   1.440       .  S
N883       C1074   1.440       .  S
N883       O1079   1.263       .  A
N883        O888   1.263       .  A
N886       O1081   1.262       .  A
N886        O890   1.262       .  A
O887       N1075   1.263       .  A
O889       N1078   1.262       .  A
C891       C1084   1.407   1_554  A
C891        C896   1.401       .  A
C891        H898   1.084       .  S
C892       C1083   1.407       .  A
C892        C893   1.425       .  A
C892        C961   1.502       .  S
C893        C894   1.397       .  A
C893        N900   1.438       .  S
C894        C895   1.395       .  A
C894        H899   1.084       .  S
C895       C1088   1.412       .  A
C896       C1087   1.412   1_554  A
C896        N897   1.435       .  S
N897        O901   1.262       .  A
N897       O1094   1.262       .  A
N900       O1095   1.263       .  A
N900        O904   1.258       .  A
O902       N1089   1.262       .  A
O903       N1092   1.263       .  A
C905        C910   1.398       .  A
C905        H912   1.084       .  S
C906        C907   1.416       .  A
C907        C908   1.398       .  A
C907        N914   1.445       .  S
C908        C909   1.402       .  A
C908        H913   1.084       .  S
C910        N911   1.445       .  S
N911        O915   1.263       .  A
N911        O916   1.262       .  A
N914        O917   1.262       .  A
N914        O918   1.263       .  A
C919        C924   1.399       .  A
C919        H926   1.084       .  S
C920        C921   1.422       .  A
C920        C966   1.491       .  S
C921        C922   1.396       .  A
C921        N928   1.444       .  S
C922        C923   1.398       .  A
C922        H927   1.084       .  S
C924        N925   1.440       .  S
N925        O929   1.263       .  A
N925       O1122   1.261       .  A
N928       O1123   1.263       .  A
N928        O932   1.260       .  A
O930       N1117   1.261       .  A
O931       N1120   1.263       .  A
C933       C1510   1.408   1_554  A
C933        C938   1.395       .  A
C933        H940   1.083       .  S
C934       C1509   1.408       .  A
C934        C935   1.423   1_565  A
C934       C1349   1.483       .  S
C935        C936   1.400       .  A
C935        N942   1.450       .  S
C936        C937   1.400   1_545  A
C936        H941   1.084       .  S
C937       C1514   1.408       .  A
C938       C1513   1.408   1_554  A
C938        N939   1.437       .  S
N939        O943   1.263       .  A
N939       O1136   1.262       .  A
N942       O1137   1.263       .  A
N942        O946   1.261       .  A
O944       N1131   1.262       .  A
O945       N1134   1.263       .  A
C947       C1332   1.406       .  A
C947        C952   1.412       .  A
C947        H954   1.084       .  S
C948       C1331   1.406   1_545  A
C948       C1141   1.404       .  A
C949       C1140   1.404       .  A
C949        C950   1.388       .  A
C949        N956   1.433   1_556  S
C950       C1143   1.405       .  A
C950        H955   1.066       .  S
C951       C1142   1.405       .  A
C951       C1336   1.421   1_545  A
C951        C962   1.565       .  S
C952       C1335   1.421       .  A
C952        N953   1.433       .  S
N953        O957   1.263       .  A
N953        O958   1.263       .  A
N956        O959   1.263       .  A
N956        O960   1.261   1_554  A
C961       C1346   1.432       .  A
C962       C1345   1.432   1_545  A
C962        C963   1.455   1_655  A
C964       C1349   1.424   1_545  A
C965       C1348   1.424       .  A
C965        C966   1.416       .  A
C965       C1318   1.483       .  S
O967       Cu975   2.002       .  S
O967        C977   1.278       .  A
O968       Cu975   2.002       .  S
O968        C978   1.278       .  A
O969       Cu975   2.005   1_556  S
O969        C979   1.275       .  A
O970        C980   1.275       .  A
O971        C980   1.277       .  A
O972       Cu976   2.019   1_556  S
O972        C979   1.278       .  A
O973       Cu976   1.985       .  S
O973        C978   1.274       .  A
O974       Cu976   1.993       .  S
O974        C977   1.274       .  A
Cu975      Cu976   2.375       .  S
C977       C1087   1.468   1_554  S
C978       C1070   1.481       .  S
C979       C1038   1.461       .  S
C980       C1037   1.455       .  S
O981       Cu989   1.993       .  S
O981       C1375   1.274       .  A
O982       Cu989   1.998       .  S
O982       C1376   1.275       .  A
O983       C1377   1.280       .  A
O984       Cu989   2.018       .  S
O984       C1378   1.279       .  A
O985       Cu990   1.991       .  S
O985        C994   1.273   1_545  A
O986        C993   1.274   1_545  A
O988       Cu990   1.980       .  S
O988        C991   1.276   1_545  A
Cu989     Cu1374   2.378       .  S
Cu990     Cu1373   2.378   1_545  S
C991       C1129   1.459       .  S
C991       O1365   1.274       .  A
C992       C1140   1.475   1_565  S
C992       O1366   1.275       .  A
C993       C1436   1.461       .  S
C993       O1367   1.280       .  A
C994       C1051   1.455       .  S
C994       O1368   1.279       .  A
C995        C996   1.414       .  A
C995       C1000   1.415       .  A
C995       C1054   1.508       .  S
C996        C997   1.415       .  A
C996       H1001   1.083       .  S
C997        C998   1.414       .  A
C997       C1016   1.505       .  S
C998        C999   1.414       .  A
C998       H1002   1.083       .  S
C999       C1000   1.416       .  A
C999       C1039   1.506       .  S
C1000      H1003   1.083       .  S
O1004      C1014   1.276       .  A
O1005     Cu1012   2.003   1_455  S
O1005      C1015   1.275       .  A
O1006     Cu1012   2.045       .  S
O1006      C1016   1.283       .  A
O1007      C1017   1.282       .  A
O1008     Cu1013   2.035       .  S
O1008      C1017   1.281       .  A
O1009      C1016   1.281       .  A
O1010      C1015   1.277   1_655  A
O1011     Cu1013   2.012       .  S
O1011      C1014   1.277       .  A
C1014      C1067   1.459       .  S
C1017      C1020   1.501       .  S
C1018      C1019   1.411       .  A
C1018      C1023   1.410       .  A
C1018      C1053   1.497       .  S
C1019      C1020   1.411       .  A
C1019      H1024   1.083       .  S
C1020      C1021   1.414       .  A
C1021      C1022   1.414       .  A
C1021      H1025   1.083       .  S
C1022      C1023   1.411       .  A
C1022      C1040   1.501       .  S
C1023      H1026   1.083       .  S
O1027     Cu1035   2.001       .  S
O1027      C1037   1.275       .  A
O1028     Cu1035   2.006       .  S
O1028      C1038   1.276       .  A
O1029     Cu1035   2.045       .  S
O1029      C1039   1.283       .  A
O1030     Cu1035   2.038       .  S
O1030      C1040   1.283       .  A
O1031     Cu1036   2.033       .  S
O1031      C1040   1.280       .  A
O1032     Cu1036   2.041       .  S
O1032      C1039   1.282       .  A
O1033     Cu1036   2.017       .  S
O1033      C1038   1.277       .  A
O1034     Cu1036   2.009       .  S
O1034      C1037   1.277       .  A
Cu1035    Cu1036   2.371       .  S
O1041     Cu1433   2.008       .  S
O1041      C1051   1.276       .  A
O1042     Cu1049   2.014       .  S
O1042      C1052   1.277       .  A
O1043     Cu1049   2.029       .  S
O1043      C1053   1.281       .  A
O1044     Cu1433   2.041   1_545  S
O1044      C1054   1.282       .  A
O1045     Cu1434   2.048   1_545  S
O1045      C1054   1.283       .  A
O1046     Cu1050   2.030       .  S
O1046      C1053   1.281       .  A
O1047     Cu1050   2.010       .  S
O1047      C1052   1.276       .  A
O1048     Cu1050   2.001       .  S
O1048      C1435   1.275       .  A
Cu1049     O1425   2.008       .  S
Cu1049     O1428   2.041       .  S
Cu1049    Cu1050   2.371       .  S
Cu1050     O1429   2.048       .  S
C1051      O1432   1.275       .  A
C1052      C1377   1.461       .  S
O1055     Cu1063   1.982       .  S
O1056     Cu1063   1.987       .  S
O1057      C1067   1.278       .  A
O1058     Cu1063   2.012       .  S
O1058      C1068   1.278       .  A
O1060     Cu1064   2.006   1_556  S
O1061     Cu1064   1.984       .  S
O1062     Cu1064   1.994       .  S
C1065      C1115   1.458   1_554  S
C1066      C1098   1.455       .  S
C1069      C1070   1.406       .  A
C1069      C1074   1.406       .  A
C1069      H1076   1.083       .  S
C1071      C1072   1.399       .  A
C1071      N1078   1.434       .  S
C1072      H1077   1.069       .  S
C1073      C1074   1.415       .  A
N1075      O1080   1.263       .  A
N1078      O1082   1.262       .  A
C1083      C1088   1.401       .  A
C1083      H1090   1.084       .  S
C1084      C1085   1.425       .  A
C1085      C1086   1.397       .  A
C1085      N1092   1.438       .  S
C1086      C1087   1.395       .  A
C1086      H1091   1.084       .  S
C1088      N1089   1.435       .  S
N1089      O1093   1.262       .  A
N1092      O1096   1.258       .  A
C1097      C1102   1.398       .  A
C1097      H1104   1.084       .  S
C1098      C1099   1.416   1_554  A
C1099      C1100   1.398       .  A
C1099      N1106   1.445       .  S
C1100      C1101   1.402   1_556  A
C1100      H1105   1.084       .  S
C1102      N1103   1.445       .  S
N1103      O1107   1.263       .  A
N1103      O1108   1.262       .  A
N1106      O1109   1.262       .  A
N1106      O1110   1.263       .  A
C1111      C1116   1.399       .  A
C1111      H1118   1.084       .  S
C1112      C1113   1.422       .  A
C1113      C1114   1.396       .  A
C1113      N1120   1.444       .  S
C1114      C1115   1.398       .  A
C1114      H1119   1.084       .  S
C1116      N1117   1.440       .  S
N1117      O1121   1.263       .  A
N1120      O1124   1.260       .  A
C1125      C1318   1.408       .  A
C1125      C1130   1.395       .  A
C1125      H1132   1.083       .  S
C1126      C1317   1.408   1_556  A
C1126      C1127   1.423   1_565  A
C1126      C1157   1.483   1_556  S
C1127      C1128   1.400       .  A
C1127      N1134   1.450       .  S
C1128      C1129   1.400   1_545  A
C1128      H1133   1.084       .  S
C1129      C1322   1.408   1_556  A
C1130      C1321   1.408       .  A
C1130      N1131   1.437       .  S
N1131      O1135   1.263       .  A
N1134      O1138   1.261       .  A
C1139      C1524   1.406       .  A
C1139      C1144   1.412       .  A
C1139      H1146   1.084       .  S
C1140      C1523   1.406   1_545  A
C1141      C1142   1.388       .  A
C1141      N1148   1.433       .  S
C1142      H1147   1.066       .  S
C1143      C1528   1.421   1_545  A
C1144      C1527   1.421       .  A
C1144      N1145   1.433       .  S
N1145      O1149   1.263       .  A
N1145      O1150   1.263       .  A
N1148      O1151   1.263       .  A
N1148      O1152   1.261       .  A
C1153      C1468   1.502       .  S
C1154      C1155   1.455   1_656  A
C1154      C1527   1.565       .  S
C1156      C1457   1.565       .  S
C1157      C1158   1.416   1_554  A
C1158      C1496   1.491       .  S
O1159     Cu1167   2.002       .  S
O1159      C1169   1.278       .  A
O1160     Cu1167   2.002       .  S
O1160      C1170   1.278       .  A
O1161     Cu1167   2.005       .  S
O1161      C1171   1.275       .  A
O1162     Cu1359   2.000       .  S
O1162      C1172   1.275       .  A
O1163     Cu1360   2.009       .  S
O1163      C1172   1.277       .  A
O1164     Cu1168   2.019       .  S
O1164      C1171   1.278       .  A
O1165     Cu1168   1.985       .  S
O1165      C1170   1.274       .  A
O1166     Cu1168   1.993       .  S
O1166      C1169   1.274       .  A
Cu1167     O1354   2.000       .  S
Cu1167    Cu1168   2.375       .  S
Cu1168     O1355   2.009       .  S
C1169      C1279   1.468       .  S
C1170      C1262   1.481       .  S
C1171      C1230   1.461       .  S
C1172      C1229   1.455       .  S
O1173     Cu1181   1.993       .  S
O1174     Cu1181   1.998       .  S
O1175     Cu1373   2.024   1_554  S
O1176     Cu1181   2.018       .  S
O1177     Cu1182   1.991       .  S
O1177      C1186   1.273       .  A
O1178     Cu1374   2.000   1_554  S
O1178      C1185   1.274       .  A
O1179     Cu1374   1.982       .  S
O1179      C1376   1.277       .  A
O1180     Cu1182   1.980       .  S
O1180      C1183   1.276       .  A
Cu1181     O1367   2.024       .  S
Cu1182     O1370   2.000       .  S
Cu1182     O1371   1.982       .  S
C1183      C1321   1.459       .  S
C1184      C1332   1.475       .  S
C1184      O1371   1.277       .  A
C1186      C1243   1.455       .  S
C1187      C1188   1.414       .  A
C1187      C1192   1.415       .  A
C1187      C1246   1.508       .  S
C1188      C1189   1.415       .  A
C1188      H1193   1.083       .  S
C1189      C1190   1.414       .  A
C1189      C1208   1.505       .  S
C1190      C1191   1.414       .  A
C1190      H1194   1.083       .  S
C1191      C1192   1.416       .  A
C1191      C1231   1.506       .  S
C1192      H1195   1.083       .  S
O1196      C1206   1.276       .  A
O1197     Cu1204   2.003   1_455  S
O1197      C1207   1.275       .  A
O1198     Cu1204   2.045       .  S
O1198      C1208   1.283       .  A
O1199      C1209   1.282       .  A
O1200     Cu1205   2.035       .  S
O1200      C1209   1.281       .  A
O1201      C1208   1.281       .  A
O1202      C1207   1.277   1_655  A
O1203     Cu1205   2.012       .  S
O1203      C1206   1.277       .  A
C1206      C1259   1.459       .  S
C1209      C1212   1.501       .  S
C1210      C1211   1.411       .  A
C1210      C1215   1.410       .  A
C1210      C1245   1.497       .  S
C1211      C1212   1.411       .  A
C1211      H1216   1.083       .  S
C1212      C1213   1.414       .  A
C1213      C1214   1.414       .  A
C1213      H1217   1.083       .  S
C1214      C1215   1.411       .  A
C1214      C1232   1.501       .  S
C1215      H1218   1.083       .  S
O1219     Cu1227   2.001       .  S
O1219      C1229   1.275       .  A
O1220     Cu1227   2.006       .  S
O1220      C1230   1.276       .  A
O1221     Cu1227   2.045       .  S
O1221      C1231   1.283       .  A
O1222     Cu1227   2.038       .  S
O1222      C1232   1.283       .  A
O1223     Cu1228   2.033       .  S
O1223      C1232   1.280       .  A
O1224     Cu1228   2.041       .  S
O1224      C1231   1.282       .  A
O1225     Cu1228   2.017       .  S
O1225      C1230   1.277       .  A
O1226     Cu1228   2.009       .  S
O1226      C1229   1.277       .  A
Cu1227    Cu1228   2.371       .  S
O1233      C1243   1.276       .  A
O1234     Cu1241   2.014       .  S
O1234      C1244   1.277       .  A
O1235     Cu1241   2.029       .  S
O1235      C1245   1.281       .  A
O1236      C1246   1.282       .  A
O1237      C1246   1.283       .  A
O1238     Cu1242   2.030       .  S
O1238      C1245   1.281       .  A
O1239     Cu1242   2.010       .  S
O1239      C1244   1.276       .  A
O1240     Cu1242   2.001       .  S
Cu1241    Cu1242   2.371       .  S
O1247     Cu1255   1.982       .  S
O1247      C1449   1.275       .  A
O1248     Cu1255   1.987       .  S
O1248      C1450   1.274       .  A
O1249     Cu1447   2.013       .  S
O1249      C1259   1.278       .  A
O1250     Cu1255   2.012       .  S
O1250      C1260   1.278       .  A
O1251     Cu1448   2.000       .  S
O1252     Cu1256   2.006       .  S
O1253     Cu1256   1.984       .  S
O1254     Cu1256   1.994       .  S
Cu1255     O1441   2.013   1_554  S
Cu1256     O1443   2.000       .  S
C1257      C1307   1.458       .  S
C1257      O1439   1.275       .  A
C1258      C1290   1.455       .  S
C1258      O1440   1.274       .  A
C1261      C1262   1.406       .  A
C1261      C1266   1.406       .  A
C1261      H1268   1.083       .  S
C1262      C1455   1.417       .  A
C1263      C1454   1.417       .  A
C1263      C1264   1.399       .  A
C1263      N1270   1.434       .  S
C1264      C1457   1.404       .  A
C1264      H1269   1.069       .  S
C1265      C1456   1.404       .  A
C1265      C1266   1.415       .  A
C1265      C1348   1.565       .  S
C1266      N1459   1.440       .  S
N1267      C1458   1.440       .  S
N1267      O1463   1.263       .  A
N1267      O1272   1.263       .  A
N1270      O1465   1.262       .  A
N1270      O1274   1.262       .  A
O1271      N1459   1.263       .  A
O1273      N1462   1.262       .  A
C1275      C1468   1.407   1_554  A
C1275      C1280   1.401       .  A
C1275      H1282   1.084       .  S
C1276      C1467   1.407       .  A
C1276      C1277   1.425       .  A
C1276      C1345   1.502       .  S
C1277      C1278   1.397       .  A
C1277      N1284   1.438       .  S
C1278      C1279   1.395       .  A
C1278      H1283   1.084       .  S
C1279      C1472   1.412       .  A
C1280      C1471   1.412   1_554  A
C1280      N1281   1.435       .  S
N1281      O1285   1.262       .  A
N1281      O1478   1.262       .  A
N1284      O1479   1.263       .  A
N1284      O1288   1.258       .  A
O1286      N1473   1.262       .  A
O1287      N1476   1.263       .  A
C1289      C1294   1.398       .  A
C1289      H1296   1.084       .  S
C1290      C1291   1.416       .  A
C1291      C1292   1.398       .  A
C1291      N1298   1.445       .  S
C1292      C1293   1.402       .  A
C1292      H1297   1.084       .  S
C1294      N1295   1.445       .  S
N1295      O1299   1.263       .  A
N1295      O1300   1.262       .  A
N1298      O1301   1.262       .  A
N1298      O1302   1.263       .  A
C1303      C1308   1.399       .  A
C1303      H1310   1.084       .  S
C1304      C1305   1.422       .  A
C1304      C1350   1.491       .  S
C1305      C1306   1.396       .  A
C1305      N1312   1.444       .  S
C1306      C1307   1.398       .  A
C1306      H1311   1.084       .  S
C1308      N1309   1.440       .  S
N1309      O1313   1.263       .  A
N1309      O1506   1.261       .  A
N1312      O1507   1.263       .  A
N1312      O1316   1.260       .  A
O1314      N1501   1.261       .  A
O1315      N1504   1.263       .  A
C1317      C1322   1.395       .  A
C1317      H1324   1.083       .  S
C1318      C1319   1.423       .  A
C1319      C1320   1.400       .  A
C1319      N1326   1.450       .  S
C1320      C1321   1.400       .  A
C1320      H1325   1.084       .  S
C1322      N1323   1.437       .  S
N1323      O1327   1.263       .  A
N1323      O1520   1.262       .  A
N1326      O1521   1.263       .  A
N1326      O1330   1.261       .  A
O1328      N1515   1.262       .  A
O1329      N1518   1.263       .  A
C1331      C1336   1.412       .  A
C1331      H1338   1.084       .  S
C1332      C1525   1.404       .  A
C1333      C1524   1.404       .  A
C1333      C1334   1.388       .  A
C1333      N1340   1.433   1_556  S
C1334      C1527   1.405       .  A
C1334      H1339   1.066       .  S
C1335      C1526   1.405       .  A
C1335      C1346   1.565       .  S
C1336      N1337   1.433       .  S
N1337      O1341   1.263       .  A
N1337      O1342   1.263       .  A
N1340      O1343   1.263       .  A
N1340      O1344   1.261   1_554  A
C1346      C1347   1.455   1_655  A
C1349      C1350   1.416       .  A
O1351     Cu1359   2.002       .  S
O1351      C1361   1.278       .  A
O1352     Cu1359   2.002       .  S
O1352      C1362   1.278       .  A
O1353     Cu1359   2.006   1_556  S
O1353      C1363   1.275       .  A
O1354      C1364   1.275       .  A
O1355      C1364   1.277       .  A
O1356     Cu1360   2.019   1_556  S
O1356      C1363   1.278       .  A
O1357     Cu1360   1.985       .  S
O1357      C1362   1.274       .  A
O1358     Cu1360   1.993       .  S
O1358      C1361   1.274       .  A
Cu1359    Cu1360   2.375       .  S
C1361      C1471   1.468   1_554  S
C1362      C1454   1.481       .  S
C1363      C1422   1.461       .  S
C1364      C1421   1.455       .  S
O1365     Cu1373   1.993       .  S
O1366     Cu1373   1.998       .  S
O1368     Cu1373   2.018       .  S
O1369     Cu1374   1.991       .  S
O1369      C1378   1.273       .  A
O1370      C1377   1.274       .  A
O1372     Cu1374   1.980       .  S
O1372      C1375   1.276       .  A
C1375      C1513   1.459       .  S
C1376      C1524   1.475       .  S
C1378      C1435   1.455       .  S
C1379      C1380   1.414       .  A
C1379      C1384   1.415       .  A
C1379      C1438   1.508       .  S
C1380      C1381   1.415       .  A
C1380      H1385   1.083       .  S
C1381      C1382   1.414       .  A
C1381      C1400   1.505       .  S
C1382      C1383   1.414       .  A
C1382      H1386   1.083       .  S
C1383      C1384   1.416       .  A
C1383      C1423   1.506       .  S
C1384      H1387   1.083       .  S
O1388      C1398   1.276       .  A
O1389     Cu1396   2.003   1_455  S
O1389      C1399   1.275       .  A
O1390     Cu1396   2.045       .  S
O1390      C1400   1.283       .  A
O1391      C1401   1.282       .  A
O1392     Cu1397   2.035       .  S
O1392      C1401   1.281       .  A
O1393      C1400   1.281       .  A
O1394      C1399   1.277   1_655  A
O1395     Cu1397   2.012       .  S
O1395      C1398   1.277       .  A
C1398      C1451   1.459       .  S
C1401      C1404   1.501       .  S
C1402      C1403   1.411       .  A
C1402      C1407   1.410       .  A
C1402      C1437   1.497       .  S
C1403      C1404   1.411       .  A
C1403      H1408   1.083       .  S
C1404      C1405   1.414       .  A
C1405      C1406   1.414       .  A
C1405      H1409   1.083       .  S
C1406      C1407   1.411       .  A
C1406      C1424   1.501       .  S
C1407      H1410   1.083       .  S
O1411     Cu1419   2.001       .  S
O1411      C1421   1.275       .  A
O1412     Cu1419   2.006       .  S
O1412      C1422   1.276       .  A
O1413     Cu1419   2.045       .  S
O1413      C1423   1.283       .  A
O1414     Cu1419   2.038       .  S
O1414      C1424   1.283       .  A
O1415     Cu1420   2.033       .  S
O1415      C1424   1.280       .  A
O1416     Cu1420   2.041       .  S
O1416      C1423   1.282       .  A
O1417     Cu1420   2.017       .  S
O1417      C1422   1.277       .  A
O1418     Cu1420   2.009       .  S
O1418      C1421   1.277       .  A
Cu1419    Cu1420   2.371       .  S
O1425      C1435   1.276       .  A
O1426     Cu1433   2.014       .  S
O1426      C1436   1.277       .  A
O1427     Cu1433   2.029       .  S
O1427      C1437   1.281       .  A
O1428      C1438   1.282       .  A
O1429      C1438   1.283       .  A
O1430     Cu1434   2.030       .  S
O1430      C1437   1.281       .  A
O1431     Cu1434   2.010       .  S
O1431      C1436   1.276       .  A
O1432     Cu1434   2.001       .  S
Cu1433    Cu1434   2.371       .  S
O1439     Cu1447   1.982       .  S
O1440     Cu1447   1.987       .  S
O1441      C1451   1.278       .  A
O1442     Cu1447   2.012       .  S
O1442      C1452   1.278       .  A
O1444     Cu1448   2.006   1_556  S
O1445     Cu1448   1.984       .  S
O1446     Cu1448   1.994       .  S
C1449      C1499   1.458   1_554  S
C1450      C1482   1.455       .  S
C1453      C1454   1.406       .  A
C1453      C1458   1.406       .  A
C1453      H1460   1.083       .  S
C1455      C1456   1.399       .  A
C1455      N1462   1.434       .  S
C1456      H1461   1.069       .  S
C1457      C1458   1.415       .  A
N1459      O1464   1.263       .  A
N1462      O1466   1.262       .  A
C1467      C1472   1.401       .  A
C1467      H1474   1.084       .  S
C1468      C1469   1.425       .  A
C1469      C1470   1.397       .  A
C1469      N1476   1.438       .  S
C1470      C1471   1.395       .  A
C1470      H1475   1.084       .  S
C1472      N1473   1.435       .  S
N1473      O1477   1.262       .  A
N1476      O1480   1.258       .  A
C1481      C1486   1.398       .  A
C1481      H1488   1.084       .  S
C1482      C1483   1.416   1_554  A
C1483      C1484   1.398       .  A
C1483      N1490   1.445       .  S
C1484      C1485   1.402   1_556  A
C1484      H1489   1.084       .  S
C1486      N1487   1.445       .  S
N1487      O1491   1.263       .  A
N1487      O1492   1.262       .  A
N1490      O1493   1.262       .  A
N1490      O1494   1.263       .  A
C1495      C1500   1.399       .  A
C1495      H1502   1.084       .  S
C1496      C1497   1.422       .  A
C1497      C1498   1.396       .  A
C1497      N1504   1.444       .  S
C1498      C1499   1.398       .  A
C1498      H1503   1.084       .  S
C1500      N1501   1.440       .  S
N1501      O1505   1.263       .  A
N1504      O1508   1.260       .  A
C1509      C1514   1.395       .  A
C1509      H1516   1.083       .  S
C1510      C1511   1.423       .  A
C1511      C1512   1.400       .  A
C1511      N1518   1.450       .  S
C1512      C1513   1.400       .  A
C1512      H1517   1.084       .  S
C1514      N1515   1.437       .  S
N1515      O1519   1.263       .  A
N1518      O1522   1.261       .  A
C1523      C1528   1.412       .  A
C1523      H1530   1.084       .  S
C1525      C1526   1.388       .  A
C1525      N1532   1.433       .  S
C1526      H1531   1.066       .  S
C1528      N1529   1.433       .  S
N1529      O1533   1.263       .  A
N1529      O1534   1.263       .  A
N1532      O1535   1.263       .  A
N1532      O1536   1.261       .  A
