geometry optimzed in LAMMPS
_audit_creation_date              2020-11-30 
_audit_creation_method            'lammps2cif' 
_symmetry_space_group_name_H-M    'P1' 
_symmetry_Int_Tables_number       1 
_symmetry_cell_setting            triclinic 
loop_ 
_symmetry_equiv_pos_as_xyz 
  x,y,z 
_cell_length_a                    39.98190322 
_cell_length_b                    40.54852182536394 
_cell_length_c                    31.338170533759037 
_cell_angle_alpha                 89.90562948282684 
_cell_angle_beta                  89.2706383418777 
_cell_angle_gamma                 90.26215696031244 
loop_ 
_atom_site_label 
_atom_site_type_symbol 
_atom_site_fract_x 
_atom_site_fract_y 
_atom_site_fract_z 
_atom_site_charge 
C1          C  0.56681415  0.96474953  0.95902421    -0.11200
C2          C  0.58493224  0.98965863  0.30229751    -0.05100
C3          C  0.57053178  0.02012596  0.31137914    -0.11200
C4          C  0.53538730  0.02242190  0.31618716     0.09800
C5          C  0.51543878  0.99352345  0.31124166    -0.03000
C6          C  0.53164114  0.96567521  0.96242554     0.09600
C7          C  0.51200622  0.93769781  0.95380154    -0.13000
C8          C  0.47718488  0.93903956  0.95659132    -0.13000
C9          C  0.46097951  0.96824109  0.96879781     0.09600
C10         C  0.48042395  0.99679800  0.97827286    -0.03000
C11         C  0.51966791  0.05256045  0.32543554    -0.13100
C12         C  0.48489742  0.05437603  0.33004735    -0.13100
C13         C  0.46478867  0.02615770  0.32523595     0.09800
C14         C  0.42962989  0.02741618  0.33009441    -0.11200
C15         C  0.41080925  0.99909789  0.98536011    -0.05100
C16         C  0.42576918  0.97002837  0.97161984    -0.11200
H17         H  0.52349579  0.91466515  0.94432815     0.07000
H18         H  0.46298497  0.91701184  0.94923788     0.07000
H19         H  0.53421962  0.07493281  0.32918242     0.07200
H20         H  0.47379773  0.07804048  0.33738623     0.07200
H21         H  0.61200615  0.98791365  0.29990892     0.03600
H22         H  0.38369221  0.00001351  0.98798570     0.03600
C23         C  0.84654633  0.89781870  0.33156358     0.86100
C24         C  0.86407541  0.91239167  0.03697182    -0.54100
C25         C  0.89814580  0.90963038  0.03665987     0.09100
C26         C  0.91168790  0.89091704  0.33165857     0.20000
C27         C  0.86440320  0.91365278  0.29301324    -0.54800
C28         C  0.89836623  0.91016297  0.29277467     0.09200
C29         C  0.85942129  0.86029409  0.99916478    -0.54400
C30         C  0.89334069  0.85691721  0.99898545     0.09700
H31         H  0.85128851  0.92604596  0.06185252     0.14300
H32         H  0.93931894  0.88823472  0.33157140     0.00000
H33         H  0.85144782  0.92761997  0.26872262     0.14600
H34         H  0.84246827  0.83929269  0.00086041     0.14300
N35         N  0.05918245  0.95562444  0.21115190    -0.06500
N36         N  0.08119428  0.94740889  0.24053227    -0.58600
N37         N  0.03488146  0.93429188  0.11374880    -0.06100
N38         N  0.04021314  0.91070403  0.08564732    -0.60700
N39         N  0.05949558  0.95604314  0.11260971    -0.05700
N40         N  0.08188726  0.94769225  0.08301277    -0.58600
N41         N  0.03457659  0.93390235  0.21052806    -0.05400
N42         N  0.03954125  0.91039809  0.23878574    -0.61100
C43         C  0.06847845  0.91916136  0.25744272     0.95700
C44         C  0.06936387  0.91938455  0.06647654     0.95500
N45         N  0.93305912  0.96150034  0.11488343    -0.06700
N46         N  0.90935637  0.95565600  0.08697186    -0.59200
N47         N  0.95532408  0.93738474  0.21253364    -0.04800
N48         N  0.94775182  0.91546859  0.24259889    -0.60400
N49         N  0.93295276  0.96111304  0.21212014    -0.06700
N50         N  0.90962058  0.95566553  0.24139073    -0.59400
N51         N  0.95542553  0.93774421  0.11393906    -0.04400
N52         N  0.94754972  0.91550658  0.08479240    -0.60500
Mn53       Mn  0.99501525  0.93512370  0.16265555     1.18400
C54         C  0.91880501  0.92711740  0.06821266     0.97800
C55         C  0.91922359  0.92735013  0.26038678     0.98500
N56         N  0.06339497  0.03547689  0.11324295    -0.06700
N57         N  0.08638425  0.04305555  0.08379351    -0.63000
N58         N  0.03995245  0.05744056  0.21187739    -0.05500
N59         N  0.04636161  0.08035934  0.24027482    -0.63700
N60         N  0.06309672  0.03446589  0.21224388    -0.06200
N61         N  0.08576318  0.04143192  0.24160758    -0.63300
N62         N  0.04042976  0.05863348  0.11495252    -0.05100
N63         N  0.04734891  0.08231853  0.08745129    -0.64000
Mn64       Mn  0.06245138  0.99531561  0.16220088     1.10700
C65         C  0.07583670  0.07241478  0.06800904     0.99000
C66         C  0.07472508  0.07018570  0.25888908     0.99100
N67         N  0.93641356  0.03925628  0.21366486    -0.06200
N68         N  0.91420701  0.04752676  0.24360877    -0.61600
N69         N  0.96151227  0.06190330  0.11569574    -0.05500
N70         N  0.95665104  0.08591981  0.08812923    -0.58300
N71         N  0.93675463  0.04042425  0.11465922    -0.06800
N72         N  0.91462597  0.04939824  0.08567525    -0.61200
N73         N  0.96139950  0.06046360  0.21296418    -0.05800
N74         N  0.95673146  0.08354051  0.24182812    -0.58300
Mn75       Mn  0.93390449  0.00056489  0.16370885     1.20200
Mn76       Mn  0.00084280  0.05987732  0.16383423     1.10100
Cl77       Cl  0.99809656  0.99767146  0.16294575    -0.86300
C78         C  0.92747566  0.07521051  0.26100061     0.96000
C79         C  0.92755432  0.07784062  0.06935864     0.95800
C80         C  0.90169819  0.15141917  0.99979891     0.86100
C81         C  0.91729841  0.13294645  0.03740326    -0.54100
C82         C  0.91125732  0.09963425  0.03789135     0.09100
C83         C  0.89043879  0.08662590  0.33185297     0.20000
C84         C  0.91700796  0.13054834  0.29021324    -0.54800
C85         C  0.91072886  0.09742016  0.29193402     0.09200
C86         C  0.86458495  0.14232950  0.00179229    -0.54400
C87         C  0.85879359  0.10858466  0.33219096     0.09700
H88         H  0.93254870  0.14518535  0.06111306     0.14300
H89         H  0.88540375  0.05969268  0.33342312     0.00000
H90         H  0.93261218  0.14092108  0.26508475     0.14600
H91         H  0.84504979  0.16087124  0.00237005     0.14300
C92         C  0.09717678  0.84740814  0.99526153     0.86100
C93         C  0.08184869  0.86487657  0.03423855    -0.54100
C94         C  0.08613294  0.89842311  0.03421684     0.09100
C95         C  0.10516270  0.91224689  0.32719331     0.20000
C96         C  0.08047257  0.86500183  0.29087907    -0.54800
C97         C  0.08496042  0.89849774  0.28967676     0.09200
C98         C  0.13370626  0.85845198  0.99391340    -0.54400
C99         C  0.13789851  0.89231151  0.32680249     0.09700
H100        H  0.06796444  0.85184870  0.05912547     0.14300
H101        H  0.10872452  0.93942650  0.32624397     0.00000
H102        H  0.06561368  0.85250512  0.26718080     0.14600
H103        H  0.15426757  0.84102828  0.99236101     0.14300
C104        C  0.10291041  0.14430719  0.99563799     0.86100
C105        C  0.08819453  0.12474521  0.28908334    -0.54100
C106        C  0.09256639  0.09125905  0.28988211     0.09100
C107        C  0.11302383  0.07910950  0.32830621     0.20000
C108        C  0.08840871  0.12670165  0.03512323    -0.54800
C109        C  0.09350451  0.09330345  0.03600335     0.09200
C110        C  0.13975564  0.13485406  0.99425998    -0.54400
C111        C  0.14574643  0.09969318  0.32619260     0.09700
H112        H  0.07418136  0.13633648  0.26391447     0.14300
H113        H  0.11671377  0.05198470  0.32909299     0.00000
H114        H  0.07394802  0.13954223  0.05947469     0.14600
H115        H  0.15971452  0.15314611  0.99386006     0.14300
C116        C  0.04545668  0.56844625  0.04940012    -0.11200
C117        C  0.01694878  0.58771959  0.05397101    -0.05100
C118        C  0.98471109  0.57439664  0.05317953    -0.11200
C119        C  0.98075388  0.53970829  0.04849420     0.09800
C120        C  0.00978638  0.51948232  0.04525127    -0.03000
C121        C  0.04227515  0.53398832  0.04558932     0.09600
C122        C  0.07060135  0.51379451  0.04220330    -0.13000
C123        C  0.06731624  0.47968411  0.03885715    -0.13000
C124        C  0.03558941  0.46474735  0.03810826     0.09600
C125        C  0.00643370  0.48474157  0.04101825    -0.03000
C126        C  0.94901681  0.52460556  0.04742885    -0.13100
C127        C  0.94571542  0.49031373  0.04323326    -0.13100
C128        C  0.97403832  0.46998938  0.04001867     0.09800
C129        C  0.97132126  0.43524634  0.03580438    -0.11200
C130        C  0.00029367  0.41630622  0.03287533    -0.05100
C131        C  0.03207738  0.43024917  0.03450084    -0.11200
H132        H  0.09555200  0.52429129  0.04257564     0.07000
H133        H  0.08984853  0.46503905  0.03658833     0.07000
H134        H  0.92652011  0.53925010  0.05014561     0.07200
H135        H  0.92080957  0.47973205  0.04257863     0.07200
H136        H  0.02004475  0.61432515  0.05557203     0.03600
H137        H  0.99802922  0.38966432  0.03024740     0.03600
C138        C  0.06007365  0.40658688  0.03428139    -0.03500
C139        C  0.06762400  0.39013209  0.07234792    -0.06200
C140        C  0.08328943  0.35937071  0.07124477    -0.21200
C141        C  0.09117836  0.34442070  0.03204632     0.24500
C142        C  0.08688631  0.36261704  0.99417921    -0.18800
C143        C  0.07118683  0.39338085  0.99532521    -0.08800
C144        C  0.10053613  0.30892885  0.03163803    -0.19000
C145        C  0.09104424  0.28851779  0.99999062    -0.23800
C146        C  0.09443325  0.25188127  0.00031232     0.26500
C147        C  0.07682845  0.23289190  0.30385730    -0.20600
C148        C  0.07939225  0.19862085  0.30081301    -0.10200
C149        C  0.09839815  0.18183978  0.99710773    -0.10800
C150        C  0.11356313  0.19982802  0.03019675    -0.03700
C151        C  0.11187488  0.23431616  0.03170435    -0.18800
H152        H  0.05859503  0.39964511  0.10263614     0.10200
H153        H  0.08668378  0.34607065  0.10087362     0.10300
H154        H  0.09536207  0.35014938  0.29686153     0.10000
H155        H  0.06512861  0.40551620  0.96560660     0.11100
H156        H  0.11170739  0.29906704  0.06023735     0.11200
H157        H  0.07455912  0.29763028  0.31150345     0.13100
H158        H  0.06070894  0.24565775  0.28180349     0.09600
H159        H  0.06466953  0.18668051  0.27675629     0.11700
H160        H  0.12733640  0.18704503  0.05470059     0.08300
H161        H  0.12451380  0.24679460  0.05733123     0.11100
C162        C  0.09499978  0.80972752  0.99758742    -0.03500
C163        C  0.08311406  0.79025692  0.29981295    -0.06200
C164        C  0.08575696  0.75594906  0.30243064    -0.21200
C165        C  0.09879611  0.73973921  0.00087085     0.24500
C166        C  0.11182162  0.75906535  0.03402011    -0.19300
C167        C  0.10986243  0.79349518  0.03234306    -0.08800
C168        C  0.09884697  0.70298203  0.00142491    -0.19000
C169        C  0.11645069  0.68399603  0.02848018    -0.23800
C170        C  0.10958111  0.64806815  0.03232076     0.26500
C171        C  0.10673032  0.63402420  0.07317206    -0.20600
C172        C  0.09020059  0.60380778  0.07884590    -0.10200
C173        C  0.07698328  0.58713697  0.04359614    -0.10800
C174        C  0.08470992  0.59859793  0.00236243    -0.03700
C175        C  0.10084157  0.62896522  0.99669483    -0.18800
H176        H  0.07314481  0.80036158  0.27085360     0.10200
H177        H  0.07702080  0.74122482  0.27594802     0.10300
H178        H  0.12322852  0.74796765  0.06158150     0.10000
H179        H  0.12064585  0.80769377  0.05803007     0.11100
H180        H  0.08810278  0.69136021  0.31356005     0.11200
H181        H  0.13276991  0.69512918  0.05180015     0.13100
H182        H  0.11375405  0.64808651  0.10104737     0.09600
H183        H  0.08404908  0.59560999  0.11092585     0.11700
H184        H  0.08439323  0.58663868  0.30766547     0.08300
H185        H  0.11263077  0.64014048  0.30349243     0.11100
C186        C  0.90676656  0.18904451  0.00184521    -0.03500
C187        C  0.91965588  0.20502534  0.29076485    -0.06200
C188        C  0.92151283  0.23947574  0.29027352    -0.21200
C189        C  0.91085552  0.25931807  0.00599222     0.24500
C190        C  0.89602288  0.24108241  0.03955336    -0.18800
C191        C  0.89412211  0.20652384  0.03744853    -0.08800
C192        C  0.91567622  0.29476610  0.32374550    -0.19000
C193        C  0.90086762  0.31693404  0.03519888    -0.23800
C194        C  0.90899706  0.35292537  0.03491163     0.26500
C195        C  0.91462071  0.36912451  0.07375995    -0.20600
C196        C  0.93011073  0.40022219  0.07428070    -0.10200
C197        C  0.93987958  0.41573383  0.03593971    -0.10800
C198        C  0.92984514  0.40162530  0.99720940    -0.03700
C199        C  0.91456063  0.37046738  0.99664497    -0.18800
H200        H  0.92658058  0.19255771  0.26166870     0.10200
H201        H  0.93063982  0.25168254  0.26160154     0.10300
H202        H  0.88589337  0.25310995  0.06755864     0.10000
H203        H  0.88220237  0.19327816  0.06359857     0.11100
H204        H  0.93201601  0.30410336  0.29852414     0.11200
H205        H  0.88664687  0.30736960  0.06218709     0.13100
H206        H  0.91008394  0.35640270  0.10371453     0.09600
H207        H  0.93821805  0.41019747  0.10450645     0.11700
H208        H  0.94942551  0.41051303  0.28954524     0.08300
H209        H  0.91986209  0.35783982  0.28395828     0.11100
C210        C  0.90870345  0.82363561  0.00258353    -0.03500
C211        C  0.93346785  0.81725463  0.03275901    -0.06200
C212        C  0.94281037  0.78464352  0.04188386    -0.21200
C213        C  0.92766549  0.75776847  0.02100787     0.24500
C214        C  0.90051397  0.76517498  0.31912706    -0.18800
C215        C  0.89105486  0.79790022  0.31221165    -0.08800
C216        C  0.93639991  0.72334569  0.03426075    -0.19000
C217        C  0.91927546  0.69588803  0.02282368    -0.23800
C218        C  0.92957207  0.66197186  0.03544315     0.26500
C219        C  0.93109889  0.63599061  0.32284306    -0.20600
C220        C  0.94012521  0.60493466  0.01453101    -0.10200
C221        C  0.95744543  0.59934204  0.05253455    -0.10800
C222        C  0.95728905  0.62425959  0.08386053    -0.03700
C223        C  0.94389735  0.65537281  0.07523818    -0.18800
H224        H  0.94420878  0.83727608  0.05095609     0.10200
H225        H  0.96108311  0.78034966  0.06647613     0.10300
H226        H  0.88691086  0.74623373  0.30244448     0.10000
H227        H  0.87074460  0.80269388  0.29055320     0.11100
H228        H  0.95793321  0.72058282  0.05472851     0.11200
H229        H  0.90350236  0.69719592  0.31693414     0.13100
H230        H  0.92178704  0.64125008  0.29126262     0.09600
H231        H  0.94731846  0.58735876  0.30500808     0.11700
H232        H  0.97069361  0.62069542  0.11333574     0.08300
H233        H  0.94597847  0.67457303  0.09903583     0.11100
C234        C  0.18027917  0.08670105  0.32703405    -0.03500
C235        C  0.19092969  0.06700409  0.36100069    -0.06200
C236        C  0.22519982  0.06178259  0.36727156    -0.21200
C237        C  0.24924923  0.07629855  0.33983006     0.24500
C238        C  0.23821501  0.09388117  0.30398776    -0.18800
C239        C  0.20414202  0.09915083  0.29787263    -0.08800
C240        C  0.28546332  0.07225295  0.34906820    -0.19000
C241        C  0.30967135  0.09284330  0.33425017    -0.23800
C242        C  0.34575003  0.08566384  0.33953687     0.26500
C243        C  0.36778698  0.09085703  0.30490004    -0.20600
C244        C  0.39957071  0.07649105  0.30466964    -0.10200
C245        C  0.40971252  0.05722405  0.33936674    -0.10800
C246        C  0.38983710  0.05688019  0.37670824    -0.03700
C247        C  0.35785186  0.07063423  0.37664643    -0.18800
H248        H  0.17295947  0.05741961  0.38407370     0.10200
H249        H  0.23299661  0.04752051  0.39462742     0.10300
H250        H  0.25569946  0.10405398  0.28083819     0.10000
H251        H  0.19639525  0.11420346  0.27119883     0.11100
H252        H  0.29239618  0.05126715  0.36859452     0.11200
H253        H  0.30329095  0.11375177  0.31438740     0.13100
H254        H  0.35916361  0.10295243  0.27624949     0.09600
H255        H  0.41423328  0.07670953  0.27536076     0.11700
H256        H  0.39705921  0.04189523  0.40369865     0.08300
H257        H  0.34179427  0.06737576  0.40442725     0.11100
C258        C  0.40217766  0.94293532  0.96198232    -0.03500
C259        C  0.39381735  0.92041451  0.99446390    -0.06200
C260        C  0.36183559  0.90619136  0.99620382    -0.21200
C261        C  0.33774165  0.91488453  0.96599657     0.24500
C262        C  0.34755459  0.93409343  0.93062855    -0.18800
C263        C  0.38075375  0.94601595  0.26718266    -0.08800
C264        C  0.30216592  0.90604567  0.97413808    -0.19000
C265        C  0.27690202  0.92703826  0.96563630    -0.23800
C266        C  0.24119074  0.92040538  0.97694208     0.26500
C267        C  0.21588181  0.93754237  0.95542284    -0.20600
C268        C  0.18125249  0.92759676  0.29030661    -0.10200
C269        C  0.17213699  0.90602678  0.32351153    -0.10800
C270        C  0.19819902  0.89024620  0.01641772    -0.03700
C271        C  0.23184244  0.89766238  0.00887240    -0.18800
H272        H  0.41055346  0.91678085  0.02096023     0.10200
H273        H  0.35494912  0.89093404  0.02335561     0.10300
H274        H  0.32984810  0.94020718  0.90602006     0.10000
H275        H  0.38826826  0.96250436  0.24152616     0.11100
H276        H  0.29720763  0.88290811  0.99044314     0.11200
H277        H  0.28253040  0.95023965  0.94966972     0.13100
H278        H  0.22182514  0.95030147  0.25528146     0.09600
H279        H  0.16239409  0.93756830  0.26945407     0.11700
H280        H  0.19182063  0.87167715  0.04008971     0.08300
H281        H  0.25028179  0.88520005  0.02789725     0.11100
C282        C  0.80847543  0.89966173  0.33063000    -0.03500
C283        C  0.78844270  0.91241603  0.02725686    -0.06200
C284        C  0.75363258  0.91180784  0.02391514    -0.21200
C285        C  0.73805122  0.89619449  0.98946930     0.24500
C286        C  0.75820648  0.88090506  0.95828037    -0.18800
C287        C  0.79305304  0.88165943  0.96147063    -0.08800
C288        C  0.70089662  0.89718637  0.98745085    -0.19000
C289        C  0.68291221  0.89064217  0.95229167    -0.23800
C290        C  0.64708143  0.89978396  0.95001407     0.26500
C291        C  0.63551913  0.91481444  0.91268309    -0.20600
C292        C  0.60554668  0.93242272  0.91341277    -0.10200
C293        C  0.58508386  0.93023133  0.29425900    -0.10800
C294        C  0.59569875  0.91565757  0.98667578    -0.03700
C295        C  0.62579207  0.89824843  0.98607718    -0.18800
H296        H  0.79867654  0.92474615  0.05458791     0.10200
H297        H  0.73875617  0.92383927  0.04842921     0.10300
H298        H  0.74742586  0.86802792  0.93157889     0.10000
H299        H  0.80790459  0.86956984  0.93699223     0.11100
H300        H  0.68796602  0.90693919  0.01536822     0.11200
H301        H  0.69536114  0.88363397  0.92277783     0.13100
H302        H  0.65130762  0.91595618  0.88436141     0.09600
H303        H  0.59916118  0.94736405  0.88603400     0.11700
H304        H  0.58158151  0.91740287  0.01631941     0.08300
H305        H  0.63358913  0.88584266  0.01488027     0.11100
C306        C  0.59455565  0.04741458  0.31832211    -0.03500
C307        C  0.60440361  0.05471444  0.36009618    -0.06200
C308        C  0.63569411  0.06917334  0.36750961    -0.21200
C309        C  0.65774432  0.07589511  0.33330696     0.24500
C310        C  0.64639794  0.07170857  0.29137843    -0.18800
C311        C  0.61505757  0.05757537  0.28399265    -0.08800
C312        C  0.69300687  0.08512792  0.34210484    -0.19000
C313        C  0.71875548  0.07370467  0.31807340    -0.23800
C314        C  0.75471808  0.08091731  0.32622101     0.26500
C315        C  0.77939375  0.06127507  0.30646484    -0.20600
C316        C  0.81348287  0.06895309  0.31030251    -0.10200
C317        C  0.82350641  0.09667927  0.33364323    -0.10800
C318        C  0.79890326  0.11539102  0.35500688    -0.03700
C319        C  0.76498044  0.10781443  0.35113562    -0.18800
H320        H  0.58931665  0.04641227  0.38702347     0.10200
H321        H  0.64372992  0.07264134  0.40008435     0.10300
H322        H  0.66242030  0.07771756  0.26433427     0.10000
H323        H  0.61015719  0.05445808  0.92116779     0.11100
H324        H  0.69778139  0.09890943  0.37103027     0.11200
H325        H  0.71332606  0.05723242  0.29171658     0.13100
H326        H  0.77222450  0.04037069  0.28708936     0.09600
H327        H  0.82952230  0.05726785  0.96066817     0.11700
H328        H  0.80584035  0.13662607  0.37389998     0.08300
H329        H  0.74704058  0.12391907  0.36645685     0.11100
C330        C  0.56584332  0.96101814  0.29846247    -0.11200
C331        C  0.58525701  0.98838391  0.64577248    -0.05100
C332        C  0.57088920  0.01860431  0.65612710    -0.11200
C333        C  0.53559277  0.02141881  0.65749167     0.09800
C334        C  0.51556539  0.99324135  0.64801867    -0.03000
C335        C  0.53074514  0.96262877  0.30245734     0.09600
C336        C  0.51065754  0.93439602  0.29764917    -0.13000
C337        C  0.47590083  0.93642667  0.30066516    -0.13000
C338        C  0.46025119  0.96661300  0.30949875     0.09600
C339        C  0.48016153  0.99542424  0.31545522    -0.03000
C340        C  0.51979937  0.05137743  0.66747821    -0.13100
C341        C  0.48489106  0.05372347  0.66846259    -0.13100
C342        C  0.46472097  0.02621063  0.65935510     0.09800
C343        C  0.42941259  0.02802251  0.66042162    -0.11200
C344        C  0.41067583  0.99904820  0.32333730    -0.05100
C345        C  0.42513187  0.96910951  0.31229628    -0.11200
H346        H  0.52172575  0.91061705  0.29087286     0.07000
H347        H  0.46131611  0.91415515  0.29622291     0.07000
H348        H  0.53440532  0.07318735  0.67462387     0.07200
H349        H  0.47372204  0.07724143  0.67640725     0.07200
H350        H  0.61235642  0.98635118  0.64504494     0.03600
H351        H  0.38357415  0.00048845  0.32579944     0.03600
C352        C  0.84764056  0.89825465  0.66485814     0.86100
C353        C  0.86371045  0.91416656  0.36984549    -0.54100
C354        C  0.89771965  0.91072954  0.37000171     0.09100
C355        C  0.91284674  0.89140649  0.66518425     0.20000
C356        C  0.86544620  0.91326333  0.62590909    -0.54800
C357        C  0.89941449  0.91015733  0.62589050     0.09200
C358        C  0.85813865  0.86203080  0.33197561    -0.54400
C359        C  0.89197805  0.85785756  0.33201687     0.09700
H360        H  0.85056701  0.92877661  0.39363091     0.14300
H361        H  0.94048995  0.88891348  0.66509312     0.00000
H362        H  0.85222890  0.92642412  0.60108175     0.14600
H363        H  0.84057560  0.84151213  0.33316576     0.14300
N364        N  0.05945160  0.95720995  0.54351279    -0.06500
N365        N  0.08129913  0.94944892  0.57329758    -0.58600
N366        N  0.03452094  0.93599201  0.44607576    -0.06100
N367        N  0.03955421  0.91255565  0.41772413    -0.60700
N368        N  0.05923162  0.95760719  0.44489772    -0.05700
N369        N  0.08143872  0.94931595  0.41505146    -0.58600
N370        N  0.03483660  0.93553100  0.54309549    -0.05400
N371        N  0.03958039  0.91248743  0.57199005    -0.61100
C372        C  0.06839487  0.92151422  0.59078202     0.95700
C373        C  0.06863635  0.92118742  0.39837856     0.95500
N374        N  0.93273479  0.96271988  0.44835414    -0.06700
N375        N  0.90895365  0.95680993  0.42052668    -0.59200
N376        N  0.95580904  0.93852559  0.54567369    -0.04800
N377        N  0.94852370  0.91627807  0.57543571    -0.60400
N378        N  0.93336117  0.96220065  0.54581628    -0.06700
N379        N  0.91021312  0.95632292  0.57521349    -0.59400
N380        N  0.95521460  0.93907293  0.44709784    -0.04400
N381        N  0.94734117  0.91687571  0.41787641    -0.60500
Mn382      Mn  0.99508482  0.93657834  0.49542852     1.18400
C383        C  0.91846306  0.92834935  0.40151161     0.97800
C384        C  0.92005856  0.92784058  0.59367873     0.98500
N385        N  0.06315007  0.03640708  0.44578180    -0.06700
N386        N  0.08589901  0.04331037  0.41582657    -0.63000
N387        N  0.03995441  0.05832420  0.54475254    -0.05500
N388        N  0.04592534  0.08053266  0.57416415    -0.63700
N389        N  0.06314489  0.03539967  0.54478104    -0.06200
N390        N  0.08545991  0.04171931  0.57481088    -0.63300
N391        N  0.04040073  0.05975984  0.44746086    -0.05100
N392        N  0.04730924  0.08302190  0.41931993    -0.64000
Mn393      Mn  0.06242013  0.99659825  0.49461037     1.10700
C394        C  0.07551473  0.07251630  0.39961504     0.99000
C395        C  0.07409991  0.07000951  0.59295702     0.99100
N396        N  0.93653694  0.04095661  0.54734374    -0.06200
N397        N  0.91446127  0.04930073  0.57745530    -0.61600
N398        N  0.96132243  0.06324198  0.44881734    -0.05500
N399        N  0.95660882  0.08687622  0.42064687    -0.58300
N400        N  0.93656609  0.04173363  0.44808953    -0.06800
N401        N  0.91461892  0.05028090  0.41866515    -0.61200
N402        N  0.96133686  0.06239795  0.54614072    -0.05800
N403        N  0.95657327  0.08573816  0.57473788    -0.58300
Mn404      Mn  0.93387183  0.00190298  0.49737501     1.20200
Mn405      Mn  0.00082519  0.06131223  0.49673824     1.10100
Cl406      Cl  0.99803356  0.99907227  0.49590763    -0.86300
C407        C  0.92748970  0.07731919  0.59435152     0.96000
C408        C  0.92759905  0.07853311  0.40182814     0.95800
C409        C  0.90296598  0.15028118  0.32821850     0.86100
C410        C  0.91805389  0.13287691  0.36709077    -0.54100
C411        C  0.91169597  0.09961010  0.36916951     0.09100
C412        C  0.89160815  0.08712349  0.66663932     0.20000
C413        C  0.91678118  0.13230197  0.62585366    -0.54800
C414        C  0.91111786  0.09898779  0.62655871     0.09200
C415        C  0.86583696  0.14152066  0.32998170    -0.54400
C416        C  0.85964681  0.10850842  0.66865365     0.09700
H417        H  0.93323810  0.14569081  0.39035826     0.14300
H418        H  0.88694677  0.06010716  0.66746782     0.00000
H419        H  0.93124765  0.14345876  0.60021078     0.14600
H420        H  0.84655381  0.16027262  0.32874400     0.14300
C421        C  0.09656750  0.84805189  0.32964406     0.86100
C422        C  0.08116177  0.86627029  0.36791562    -0.54100
C423        C  0.08547170  0.89978702  0.36677811     0.09100
C424        C  0.10513612  0.91394803  0.66082140     0.20000
C425        C  0.08012574  0.86741053  0.62340313    -0.54800
C426        C  0.08486475  0.90080792  0.62291276     0.09200
C427        C  0.13309198  0.85908982  0.32805392    -0.54400
C428        C  0.13776859  0.89368088  0.65994276     0.09700
H429        H  0.06722746  0.85374524  0.39318753     0.14300
H430        H  0.10891470  0.94110463  0.66040771     0.00000
H431        H  0.06505017  0.85538339  0.59952417     0.14600
H432        H  0.15372557  0.84172202  0.32716376     0.14300
C433        C  0.10401638  0.14329336  0.32667485     0.86100
C434        C  0.08697719  0.12427856  0.62324168    -0.54100
C435        C  0.09180955  0.09093174  0.62417941     0.09100
C436        C  0.11190513  0.07909103  0.66314029     0.20000
C437        C  0.08921309  0.12616085  0.36621152    -0.54800
C438        C  0.09338496  0.09271916  0.36716831     0.09200
C439        C  0.14066415  0.13291644  0.32502597    -0.54400
C440        C  0.14432404  0.10020313  0.66184351     0.09700
H441        H  0.07220643  0.13541073  0.59847651     0.14300
H442        H  0.11600058  0.05202760  0.66404787     0.00000
H443        H  0.07522948  0.13941424  0.39064423     0.14600
H444        H  0.16116453  0.15060783  0.32399573     0.14300
C445        C  0.04753234  0.56794832  0.37637776    -0.11200
C446        C  0.01871648  0.58703245  0.37627123    -0.05100
C447        C  0.98680893  0.57333535  0.37310064    -0.11200
C448        C  0.98341715  0.53849253  0.36990924     0.09800
C449        C  0.01268752  0.51847855  0.37095190    -0.03000
C450        C  0.04491572  0.53334155  0.37395494     0.09600
C451        C  0.07347636  0.51334340  0.37456407    -0.13000
C452        C  0.07065504  0.47909700  0.37274057    -0.13000
C453        C  0.03919500  0.46378305  0.36997354     0.09600
C454        C  0.00984135  0.48356642  0.36874424    -0.03000
C455        C  0.95201247  0.52305085  0.36622302    -0.13100
C456        C  0.94923367  0.48860946  0.36373746    -0.13100
C457        C  0.97775002  0.46846760  0.36512701     0.09800
C458        C  0.97550499  0.43357503  0.36300425    -0.11200
C459        C  0.00458233  0.41481012  0.36504226    -0.05100
C460        C  0.03612322  0.42912746  0.36822773    -0.11200
H461        H  0.09822448  0.52411779  0.37679924     0.07000
H462        H  0.09333391  0.46462256  0.37357455     0.07000
H463        H  0.92936825  0.53756892  0.36544664     0.07200
H464        H  0.92455790  0.47776199  0.36097002     0.07200
H465        H  0.02139316  0.61370728  0.37727115     0.03600
H466        H  0.00264121  0.38809114  0.36347209     0.03600
C467        C  0.06441821  0.40577779  0.36792527    -0.03500
C468        C  0.07306890  0.38983496  0.40598886    -0.06200
C469        C  0.08862713  0.35895273  0.40480206    -0.21200
C470        C  0.09500496  0.34337734  0.36556930     0.24500
C471        C  0.08964138  0.36104365  0.32759707    -0.18800
C472        C  0.07436307  0.39195891  0.32881955    -0.08800
C473        C  0.10373810  0.30775935  0.36496451    -0.19000
C474        C  0.09066131  0.28718222  0.33565078    -0.23800
C475        C  0.09458054  0.25061972  0.33471764     0.26500
C476        C  0.08081456  0.23289703  0.62990073    -0.20600
C477        C  0.08324726  0.19860599  0.62815308    -0.10200
C478        C  0.09996926  0.18082434  0.32872600    -0.10800
C479        C  0.11715074  0.19862634  0.36036149    -0.03700
C480        C  0.11481382  0.23301722  0.36313827    -0.18800
H481        H  0.06494546  0.39978720  0.43643528     0.10200
H482        H  0.09290413  0.34599207  0.43447757     0.10300
H483        H  0.08713782  0.34931424  0.62460541     0.10000
H484        H  0.06741106  0.40364083  0.29912981     0.11100
H485        H  0.11794573  0.29821182  0.39142769     0.11200
H486        H  0.07132886  0.29671871  0.64122496     0.13100
H487        H  0.06942871  0.24570706  0.60344982     0.09600
H488        H  0.07400358  0.18694038  0.59980821     0.11700
H489        H  0.13279433  0.18578053  0.38287575     0.08300
H490        H  0.12898183  0.24539323  0.38751803     0.11100
C491        C  0.09449041  0.81047524  0.33316056    -0.03500
C492        C  0.08259502  0.79286364  0.62894833    -0.06200
C493        C  0.08364194  0.75842955  0.63089172    -0.21200
C494        C  0.09988729  0.74067757  0.33814110     0.24500
C495        C  0.11061096  0.76068433  0.37199792    -0.19300
C496        C  0.10794522  0.79503165  0.36941867    -0.08800
C497        C  0.10139832  0.70393478  0.33884698    -0.19000
C498        C  0.11572822  0.68545300  0.36944887    -0.23800
C499        C  0.10999699  0.64923556  0.37165985     0.26500
C500        C  0.10318618  0.63469495  0.41150786    -0.20600
C501        C  0.08767423  0.60373448  0.41384485    -0.10200
C502        C  0.07913996  0.58694465  0.37634042    -0.10800
C503        C  0.09099738  0.59905046  0.33698756    -0.03700
C504        C  0.10633461  0.63006738  0.33459814    -0.18800
H505        H  0.07452864  0.80371417  0.59943526     0.10200
H506        H  0.07553567  0.74436599  0.60349745     0.10300
H507        H  0.12112480  0.75026075  0.40054577     0.10000
H508        H  0.11726362  0.80978970  0.39552619     0.11100
H509        H  0.07961017  0.69333164  0.64449659     0.11200
H510        H  0.12799200  0.69701199  0.39621357     0.13100
H511        H  0.10630861  0.64876125  0.44055820     0.09600
H512        H  0.07830593  0.59503915  0.44446097     0.11700
H513        H  0.07675514  0.58696167  0.63981594     0.08300
H514        H  0.10277211  0.64125869  0.63101992     0.11100
C515        C  0.90806187  0.18785298  0.32731909    -0.03500
C516        C  0.92287003  0.20691682  0.63295282    -0.06200
C517        C  0.92518381  0.24131560  0.63485487    -0.21200
C518        C  0.91149941  0.25812662  0.32582932     0.24500
C519        C  0.89982868  0.24124748  0.36243597    -0.18800
C520        C  0.89802831  0.20667867  0.36300145    -0.08800
C521        C  0.91647593  0.29562042  0.66982904    -0.19000
C522        C  0.90224057  0.31644115  0.35177989    -0.23800
C523        C  0.91201630  0.35202589  0.35225614     0.26500
C524        C  0.91416796  0.36830708  0.39166599    -0.20600
C525        C  0.93047334  0.39887944  0.39464004    -0.10200
C526        C  0.94443922  0.41392662  0.35812503    -0.10800
C527        C  0.93835325  0.39971971  0.31807657    -0.03700
C528        C  0.92229367  0.36903286  0.31509404    -0.18800
H529        H  0.93265885  0.19532495  0.60457309     0.10200
H530        H  0.93683905  0.25432987  0.60831358     0.10300
H531        H  0.89247928  0.25438351  0.39099104     0.10000
H532        H  0.88847275  0.19449444  0.39144820     0.11100
H533        H  0.93339818  0.30566527  0.64568344     0.11200
H534        H  0.88642138  0.30761381  0.37775299     0.13100
H535        H  0.90604721  0.35599991  0.42073071     0.09600
H536        H  0.93555044  0.40887298  0.42594212     0.11700
H537        H  0.94407783  0.41125095  0.63159660     0.08300
H538        H  0.91526335  0.35807579  0.62867078     0.11100
C539        C  0.90661029  0.82405963  0.33390931    -0.03500
C540        C  0.93333873  0.81681633  0.36086818    -0.06200
C541        C  0.94289148  0.78392178  0.36786153    -0.21200
C542        C  0.92609590  0.75753073  0.34794011     0.24500
C543        C  0.89932541  0.76479417  0.65967402    -0.18800
C544        C  0.88982420  0.79730359  0.65168613    -0.08800
C545        C  0.93535047  0.72274819  0.35926409    -0.19000
C546        C  0.92156257  0.69520367  0.34220665    -0.23800
C547        C  0.93203068  0.66104351  0.35385465     0.26500
C548        C  0.92958250  0.63573497  0.66586396    -0.20600
C549        C  0.94501285  0.60488078  0.33091367    -0.10200
C550        C  0.95939827  0.59801154  0.37054924    -0.10800
C551        C  0.95676475  0.62184774  0.40309183    -0.03700
C552        C  0.94352968  0.65309596  0.39478797    -0.18800
H553        H  0.94571655  0.83637576  0.37818412     0.10200
H554        H  0.96288565  0.77902951  0.38995551     0.10300
H555        H  0.88353734  0.74547609  0.64736500     0.10000
H556        H  0.86766399  0.80126888  0.63291264     0.11100
H557        H  0.95486822  0.71978874  0.38272349     0.11200
H558        H  0.90280135  0.69707341  0.65850112     0.13100
H559        H  0.91941460  0.64024648  0.63453467     0.09600
H560        H  0.94431962  0.58634767  0.64968557     0.11700
H561        H  0.96805848  0.61735582  0.43379718     0.08300
H562        H  0.94345390  0.67131303  0.41999372     0.11100
C563        C  0.17908189  0.08776187  0.66256799    -0.03500
C564        C  0.19005814  0.06770731  0.69599786    -0.06200
C565        C  0.22441282  0.06257303  0.70178059    -0.21200
C566        C  0.24824886  0.07749044  0.67436020     0.24500
C567        C  0.23686516  0.09564200  0.63917194    -0.18800
C568        C  0.20272119  0.10082611  0.63355952    -0.08800
C569        C  0.28458286  0.07305044  0.68281567    -0.19000
C570        C  0.30894522  0.09312005  0.66715947    -0.23800
C571        C  0.34505284  0.08555426  0.67176609     0.26500
C572        C  0.36687726  0.09121398  0.63702235    -0.20600
C573        C  0.39879563  0.07711889  0.63627867    -0.10200
C574        C  0.40934898  0.05758220  0.67053576    -0.10800
C575        C  0.38955737  0.05649740  0.70791614    -0.03700
C576        C  0.35746348  0.07007160  0.70841151    -0.18800
H577        H  0.17226976  0.05764239  0.71895624     0.10200
H578        H  0.23244400  0.04790516  0.72865699     0.10300
H579        H  0.25408978  0.10621377  0.61602385     0.10000
H580        H  0.19472798  0.11616154  0.60727624     0.11100
H581        H  0.29147238  0.05207138  0.70236477     0.11200
H582        H  0.30262847  0.11400418  0.64723387     0.13100
H583        H  0.35804987  0.10362595  0.60870192     0.09600
H584        H  0.41332173  0.07781636  0.60686740     0.11700
H585        H  0.39701064  0.04120950  0.73451097     0.08300
H586        H  0.34162743  0.06644162  0.73631478     0.11100
C587        C  0.40115484  0.94234893  0.30305119    -0.03500
C588        C  0.39061975  0.92147863  0.33633701    -0.06200
C589        C  0.35868118  0.90723934  0.33570901    -0.21200
C590        C  0.33670770  0.91441796  0.30236625     0.24500
C591        C  0.34862570  0.93236836  0.26693457    -0.18800
C592        C  0.38012665  0.94786403  0.59413458    -0.08800
C593        C  0.30092573  0.90544160  0.30739239    -0.19000
C594        C  0.27606544  0.92590092  0.29570358    -0.23800
C595        C  0.24024336  0.91976910  0.30658223     0.26500
C596        C  0.21514267  0.93447104  0.28195887    -0.20600
C597        C  0.18085220  0.92897692  0.62265600    -0.10200
C598        C  0.17220495  0.90702246  0.65566155    -0.10800
C599        C  0.19704384  0.89322353  0.34987251    -0.03700
C600        C  0.23067489  0.90014446  0.34173775    -0.18800
H601        H  0.40564500  0.91896445  0.36467174     0.10200
H602        H  0.35006343  0.89310850  0.36311111     0.10300
H603        H  0.33251981  0.93744696  0.24021890     0.10000
H604        H  0.38710873  0.96497553  0.56893510     0.11100
H605        H  0.29523110  0.88296644  0.32486527     0.11200
H606        H  0.28213339  0.94837001  0.27828134     0.13100
H607        H  0.22085946  0.95171328  0.58658394     0.09600
H608        H  0.16163319  0.93957171  0.60287830     0.11700
H609        H  0.19045742  0.87686879  0.37606686     0.08300
H610        H  0.24897548  0.88981543  0.36298291     0.11100
C611        C  0.80958140  0.89994218  0.66165166    -0.03500
C612        C  0.78928469  0.90121785  0.36856653    -0.06200
C613        C  0.75437309  0.89984588  0.36748380    -0.21200
C614        C  0.73764079  0.89593593  0.32873734     0.24500
C615        C  0.75666362  0.89357233  0.29083348    -0.18800
C616        C  0.79157197  0.89485078  0.29192464    -0.08800
C617        C  0.70048302  0.89671324  0.32914234    -0.19000
C618        C  0.68117034  0.88621594  0.29685049    -0.23800
C619        C  0.64528473  0.89502491  0.29509397     0.26500
C620        C  0.63249537  0.90653300  0.25637809    -0.20600
C621        C  0.60266909  0.92436398  0.25601429    -0.10200
C622        C  0.58536048  0.93095964  0.62475200    -0.10800
C623        C  0.59530104  0.91453725  0.33177188    -0.03700
C624        C  0.62529775  0.89701052  0.33225200    -0.18800
H625        H  0.80102249  0.90274635  0.39937391     0.10200
H626        H  0.74034361  0.90156096  0.39720214     0.10300
H627        H  0.74490717  0.89114278  0.26013330     0.10000
H628        H  0.80535459  0.89177787  0.26226415     0.11100
H629        H  0.68865455  0.90832815  0.35662951     0.11200
H630        H  0.69239629  0.87511438  0.26870235     0.13100
H631        H  0.64732701  0.90493781  0.22728467     0.09600
H632        H  0.59542170  0.93675610  0.22693296     0.11700
H633        H  0.58223823  0.91914241  0.36165806     0.08300
H634        H  0.63411119  0.88738795  0.36230950     0.11100
C635        C  0.59509920  0.04562210  0.66419300    -0.03500
C636        C  0.60541904  0.05188831  0.70607980    -0.06200
C637        C  0.63695932  0.06593721  0.71357629    -0.21200
C638        C  0.65887536  0.07312155  0.67933703     0.24500
C639        C  0.64710852  0.06984693  0.63746321    -0.18800
C640        C  0.61552336  0.05628023  0.63002314    -0.08800
C641        C  0.69435855  0.08209756  0.68780467    -0.19000
C642        C  0.71974394  0.07139050  0.66252236    -0.23800
C643        C  0.75598290  0.07883183  0.66885010     0.26500
C644        C  0.77985802  0.06181358  0.64392896    -0.20600
C645        C  0.81392855  0.07003542  0.64557832    -0.10200
C646        C  0.82476883  0.09576648  0.67183809    -0.10800
C647        C  0.80121562  0.11179173  0.69823437    -0.03700
C648        C  0.76724735  0.10350295  0.69679864    -0.18800
H649        H  0.59045695  0.04317346  0.73289579     0.10200
H650        H  0.64526272  0.06872647  0.74614469     0.10300
H651        H  0.66291872  0.07626323  0.61037596     0.10000
H652        H  0.60814235  0.05168807  0.25155979     0.11100
H653        H  0.69951293  0.09543638  0.71694726     0.11200
H654        H  0.71372376  0.05560222  0.63569153     0.13100
H655        H  0.77200322  0.04264259  0.62216097     0.09600
H656        H  0.83180066  0.05421560  0.29329764     0.11700
H657        H  0.80899875  0.13153268  0.71918862     0.08300
H658        H  0.75001204  0.11747157  0.71640094     0.11100
C659        C  0.56608406  0.96072896  0.63592980    -0.11200
C660        C  0.58541956  0.99322518  0.96659766    -0.05100
C661        C  0.57049861  0.02288734  0.97852129    -0.11200
C662        C  0.53526820  0.02432650  0.98318791     0.09800
C663        C  0.51579016  0.99562878  0.97455084    -0.03000
C664        C  0.53089644  0.96270391  0.63725951     0.09600
C665        C  0.51076301  0.93524580  0.62785284    -0.13000
C666        C  0.47596406  0.93760878  0.62868409    -0.13000
C667        C  0.46024251  0.96748736  0.63899932     0.09600
C668        C  0.48016961  0.99564125  0.64888577    -0.03000
C669        C  0.51899398  0.05345180  0.99575000    -0.13100
C670        C  0.48417504  0.05446507  0.00007081    -0.13100
C671        C  0.46452205  0.02651196  0.99142561     0.09800
C672        C  0.42931008  0.02705920  0.99575986    -0.11200
C673        C  0.41050790  0.00027185  0.65025766    -0.05100
C674        C  0.42506283  0.97036187  0.63925052    -0.11200
H675        H  0.52185916  0.91175658  0.61959993     0.07000
H676        H  0.46139493  0.91588670  0.62100640     0.07000
H677        H  0.53313580  0.07565129  0.00238237     0.07200
H678        H  0.47267272  0.07735167  0.01009177     0.07200
H679        H  0.61253079  0.99195706  0.96445660     0.03600
H680        H  0.38338114  0.00205805  0.65083445     0.03600
C681        C  0.84696191  0.89591739  0.99855932     0.86100
C682        C  0.86478592  0.91505631  0.70293059    -0.54100
C683        C  0.89881745  0.91165598  0.70316616     0.09100
C684        C  0.91229427  0.89030956  0.99822656     0.20000
C685        C  0.86432030  0.91191118  0.95983282    -0.54800
C686        C  0.89837514  0.90934508  0.95952663     0.09200
C687        C  0.85935739  0.86251625  0.66671818    -0.54400
C688        C  0.89321831  0.85820669  0.66642044     0.09700
H689        H  0.85198622  0.92939591  0.72714629     0.14300
H690        H  0.93998156  0.88816176  0.99800214     0.00000
H691        H  0.85077398  0.92515359  0.93537888     0.14600
H692        H  0.84165806  0.84219126  0.66913843     0.14300
N693        N  0.05930668  0.95660823  0.87945154    -0.06500
N694        N  0.08139490  0.94819882  0.90868853    -0.58600
N695        N  0.03481008  0.93603382  0.78139200    -0.06100
N696        N  0.03968377  0.91308706  0.75229126    -0.60700
N697        N  0.05950491  0.95766840  0.78055540    -0.05700
N698        N  0.08152913  0.94987773  0.75020626    -0.58600
N699        N  0.03469574  0.93489921  0.87863672    -0.05400
N700        N  0.03974737  0.91121920  0.90665849    -0.61100
C701        C  0.06873376  0.91984534  0.92539253     0.95700
C702        C  0.06865588  0.92201940  0.73281279     0.95500
N703        N  0.93306374  0.96299444  0.78287135    -0.06700
N704        N  0.90967224  0.95739061  0.75440565    -0.59200
N705        N  0.95528789  0.93841769  0.88036262    -0.04800
N706        N  0.94768663  0.91596519  0.90970888    -0.60400
N707        N  0.93276128  0.96204385  0.88036879    -0.06700
N708        N  0.90922893  0.95587540  0.90921114    -0.59400
N709        N  0.95552474  0.93932758  0.78172367    -0.04400
N710        N  0.94800458  0.91741625  0.75197328    -0.60500
Mn711      Mn  0.99504867  0.93649048  0.83055110     1.18400
C712        C  0.91938226  0.92909594  0.73511721     0.97800
C713        C  0.91894573  0.92727522  0.92748481     0.98500
N714        N  0.06307679  0.03649911  0.78185377    -0.06700
N715        N  0.08528447  0.04326496  0.75114681    -0.63000
N716        N  0.03979514  0.05839235  0.88097356    -0.05500
N717        N  0.04621515  0.08108952  0.90964199    -0.63700
N718        N  0.06299397  0.03544538  0.88104973    -0.06200
N719        N  0.08571475  0.04226057  0.91041933    -0.63300
N720        N  0.04022223  0.05973724  0.78369276    -0.05100
N721        N  0.04644696  0.08271154  0.75495282    -0.64000
Mn722      Mn  0.06240065  0.99650263  0.83071424     1.10700
C723        C  0.07439240  0.07225075  0.73468512     0.99000
C724        C  0.07465134  0.07086107  0.92807469     0.99100
N725        N  0.93593886  0.04105765  0.88241455    -0.06200
N726        N  0.91335883  0.04969100  0.91178166    -0.61600
N727        N  0.96165051  0.06332863  0.78442806    -0.05500
N728        N  0.95740815  0.08686946  0.75601890    -0.58300
N729        N  0.93691884  0.04183729  0.78319262    -0.06800
N730        N  0.91542040  0.05030686  0.75321240    -0.61200
N731        N  0.96081440  0.06243980  0.88170317    -0.05800
N732        N  0.95557539  0.08602558  0.90984958    -0.58300
Mn733      Mn  0.93374830  0.00197032  0.83223700     1.20200
Mn734      Mn  0.00070731  0.06129430  0.83279088     1.10100
Cl735      Cl  0.99797147  0.99902415  0.83162960    -0.86300
C736        C  0.92613139  0.07782192  0.92871553     0.96000
C737        C  0.92870870  0.07846446  0.73652919     0.95800
C738        C  0.90305315  0.15103629  0.66512128     0.86100
C739        C  0.91891210  0.13302572  0.70290698    -0.54100
C740        C  0.91306577  0.09969564  0.70394540     0.09100
C741        C  0.88964337  0.08760363  0.00044348     0.20000
C742        C  0.91535595  0.13286723  0.96031291    -0.54800
C743        C  0.90939647  0.09956709  0.96059456     0.09200
C744        C  0.86599755  0.14160295  0.66745193    -0.54400
C745        C  0.85785497  0.10931246  0.00266717     0.09700
H746        H  0.93391314  0.14562329  0.72656870     0.14300
H747        H  0.88475383  0.06062254  0.00090904     0.00000
H748        H  0.93008276  0.14410134  0.93498333     0.14600
H749        H  0.84623579  0.15990992  0.66803197     0.14300
C750        C  0.09593601  0.84979064  0.66167937     0.86100
C751        C  0.08060673  0.86760210  0.70036321    -0.54100
C752        C  0.08525322  0.90110021  0.70021493     0.09100
C753        C  0.10581455  0.91164003  0.99502731     0.20000
C754        C  0.08110148  0.86516157  0.95710263    -0.54800
C755        C  0.08551322  0.89867127  0.95700776     0.09200
C756        C  0.13258391  0.86045868  0.66056769    -0.54400
C757        C  0.13862762  0.89168623  0.99414377     0.09700
H758        H  0.06650637  0.85481084  0.72525689     0.14300
H759        H  0.10934510  0.93882608  0.99503696     0.00000
H760        H  0.06641603  0.85315391  0.93282468     0.14600
H761        H  0.15298239  0.84284763  0.65906909     0.14300
C762        C  0.10196750  0.14316137  0.66095217     0.86100
C763        C  0.08758089  0.12541989  0.95807997    -0.54100
C764        C  0.09271191  0.09207642  0.95874967     0.09100
C765        C  0.11354664  0.08033932  0.99711470     0.20000
C766        C  0.08661913  0.12588987  0.70014279    -0.54800
C767        C  0.09152669  0.09249713  0.70156991     0.09200
C768        C  0.13872321  0.13334875  0.66068831    -0.54400
C769        C  0.14577337  0.10179549  0.99533244     0.09700
H770        H  0.07275790  0.13656375  0.93338631     0.14300
H771        H  0.11791535  0.05331603  0.99777839     0.00000
H772        H  0.07214124  0.13902283  0.72420836     0.14600
H773        H  0.15890455  0.15140159  0.66021009     0.14300
C774        C  0.04669068  0.56835941  0.71352046    -0.11200
C775        C  0.01797555  0.58746087  0.71674173    -0.05100
C776        C  0.98592347  0.57388462  0.71595074    -0.11200
C777        C  0.98225518  0.53910159  0.71264542     0.09800
C778        C  0.01145420  0.51900373  0.71063265    -0.03000
C779        C  0.04385081  0.53375986  0.71085931     0.09600
C780        C  0.07231360  0.51367526  0.70833944    -0.13000
C781        C  0.06924320  0.47946200  0.70563594    -0.13000
C782        C  0.03760765  0.46428629  0.70503730     0.09600
C783        C  0.00832894  0.48416096  0.70750448    -0.03000
C784        C  0.95062642  0.52383042  0.71160415    -0.13100
C785        C  0.94755071  0.48946811  0.70849371    -0.13100
C786        C  0.97600363  0.46925078  0.70635673     0.09800
C787        C  0.97344278  0.43447630  0.70275385    -0.11200
C788        C  0.00249326  0.41560863  0.70070058    -0.05100
C789        C  0.03425177  0.42971843  0.70155587    -0.11200
H790        H  0.09718016  0.52436910  0.70861879     0.07000
H791        H  0.09186355  0.46491698  0.70379622     0.07000
H792        H  0.92804497  0.53842802  0.71334945     0.07200
H793        H  0.92270604  0.47875427  0.70773479     0.07200
H794        H  0.02077290  0.61413078  0.71753720     0.03600
H795        H  0.00030978  0.38896168  0.69802622     0.03600
C796        C  0.06234696  0.40624632  0.69779197    -0.03500
C797        C  0.07460866  0.39120983  0.73475601    -0.06200
C798        C  0.09017469  0.36036365  0.73233913    -0.21200
C799        C  0.09306207  0.34391959  0.69306498     0.24500
C800        C  0.08404161  0.36070897  0.65560451    -0.18800
C801        C  0.06864739  0.39153265  0.65803333    -0.08800
C802        C  0.10233320  0.30840215  0.69255392    -0.19000
C803        C  0.08831752  0.28708188  0.66491029    -0.23800
C804        C  0.09293795  0.25063383  0.66485716     0.26500
C805        C  0.07887647  0.23402344  0.96773646    -0.20600
C806        C  0.08073171  0.19965873  0.96604702    -0.10200
C807        C  0.09772435  0.18070120  0.66177168    -0.10800
C808        C  0.10986703  0.19860820  0.69691827    -0.03700
C809        C  0.10747428  0.23306043  0.69859252    -0.18800
H810        H  0.06934863  0.40184450  0.76579268     0.10200
H811        H  0.09732671  0.34813815  0.76157373     0.10300
H812        H  0.09388323  0.35237521  0.96349512     0.10000
H813        H  0.05892361  0.40252499  0.62922829     0.11100
H814        H  0.11843379  0.29953677  0.71760937     0.11200
H815        H  0.07777309  0.29894714  0.97316941     0.13100
H816        H  0.06507164  0.24676626  0.94320567     0.09600
H817        H  0.06822347  0.18781858  0.93999629     0.11700
H818        H  0.12132594  0.18576582  0.72327224     0.08300
H819        H  0.11665117  0.24550866  0.72658232     0.11100
C820        C  0.09309806  0.81219148  0.66372090    -0.03500
C821        C  0.08139550  0.79016566  0.96493578    -0.06200
C822        C  0.08321629  0.75575206  0.96674967    -0.21200
C823        C  0.09556789  0.74219474  0.66717425     0.24500
C824        C  0.10564085  0.76129137  0.70220583    -0.19300
C825        C  0.10461268  0.79574032  0.70029890    -0.08800
C826        C  0.09547043  0.70545362  0.66765304    -0.19000
C827        C  0.11240492  0.68669554  0.69563072    -0.23800
C828        C  0.10663386  0.65056568  0.69891177     0.26500
C829        C  0.10392731  0.63614046  0.73954104    -0.20600
C830        C  0.08952900  0.60482813  0.74445351    -0.10200
C831        C  0.07802215  0.58752041  0.70870549    -0.10800
C832        C  0.08577734  0.59971271  0.66779223    -0.03700
C833        C  0.09977264  0.63118369  0.66286252    -0.18800
H834        H  0.06986155  0.80082194  0.93729571     0.10200
H835        H  0.07256582  0.74151624  0.94099482     0.10300
H836        H  0.11408720  0.74995977  0.73134438     0.10000
H837        H  0.11332480  0.80972448  0.72743179     0.11100
H838        H  0.08191982  0.69095344  0.97944361     0.11200
H839        H  0.12784687  0.69811597  0.71968407     0.13100
H840        H  0.10954999  0.65043246  0.76775172     0.09600
H841        H  0.08327049  0.59615761  0.77629740     0.11700
H842        H  0.07441633  0.58626757  0.97479752     0.08300
H843        H  0.10386348  0.63869908  0.96467901     0.11100
C844        C  0.90791262  0.18869173  0.66653675    -0.03500
C845        C  0.92206746  0.20751299  0.96874589    -0.06200
C846        C  0.92409961  0.24194068  0.97097327    -0.21200
C847        C  0.91248986  0.25891615  0.66998553     0.24500
C848        C  0.89784532  0.24098178  0.70393129    -0.18800
C849        C  0.89565668  0.20642629  0.70215075    -0.08800
C850        C  0.91413454  0.29613420  0.00588892    -0.19000
C851        C  0.90180234  0.31682277  0.69750639    -0.23800
C852        C  0.91033947  0.35272094  0.69737313     0.26500
C853        C  0.91357013  0.36940661  0.73636844    -0.20600
C854        C  0.92954497  0.40026114  0.73788479    -0.10200
C855        C  0.94201300  0.41506789  0.70033640    -0.10800
C856        C  0.93429639  0.40058451  0.66094569    -0.03700
C857        C  0.91866923  0.36964941  0.65942305    -0.18800
H858        H  0.93225898  0.19608139  0.94051187     0.10200
H859        H  0.93593840  0.25514880  0.94471656     0.10300
H860        H  0.88830812  0.25327609  0.73209980     0.10000
H861        H  0.88399997  0.19337881  0.72865081     0.11100
H862        H  0.92953058  0.30665076  0.98045772     0.11200
H863        H  0.88576289  0.30764045  0.72305325     0.13100
H864        H  0.90682170  0.35717871  0.76602505     0.09600
H865        H  0.93576329  0.41057269  0.76866167     0.11700
H866        H  0.93757133  0.41279103  0.96721978     0.08300
H867        H  0.90930873  0.35920428  0.96614638     0.11100
C868        C  0.90772961  0.82418708  0.66862706    -0.03500
C869        C  0.93720618  0.81755254  0.69091900    -0.06200
C870        C  0.94706103  0.78476851  0.69853313    -0.21200
C871        C  0.92771980  0.75788486  0.68410853     0.24500
C872        C  0.90459367  0.76455522  0.98860671    -0.18800
C873        C  0.89517050  0.79700952  0.97975335    -0.08800
C874        C  0.93709091  0.72340559  0.69676926    -0.19000
C875        C  0.92186889  0.69559674  0.68259354    -0.23800
C876        C  0.93202580  0.66165741  0.69547548     0.26500
C877        C  0.92593283  0.63587542  0.00632984    -0.20600
C878        C  0.94310302  0.60462982  0.67481136    -0.10200
C879        C  0.95861264  0.59867082  0.71398058    -0.10800
C880        C  0.95736720  0.62345465  0.74544882    -0.03700
C881        C  0.94456435  0.65472290  0.73618702    -0.18800
H882        H  0.95170792  0.83753330  0.70431970     0.10200
H883        H  0.96929880  0.78040926  0.71705738     0.10300
H884        H  0.89321626  0.74508907  0.97025742     0.10000
H885        H  0.87641043  0.80128159  0.95575294     0.11100
H886        H  0.95779416  0.72087451  0.71861594     0.11200
H887        H  0.89817053  0.69766276  0.00166239     0.13100
H888        H  0.91440338  0.64017676  0.97574642     0.09600
H889        H  0.94035575  0.58652401  0.98953339     0.11700
H890        H  0.96954327  0.61965054  0.77574409     0.08300
H891        H  0.94567288  0.67373892  0.76033904     0.11100
C892        C  0.18071443  0.08984728  0.99746667    -0.03500
C893        C  0.19056837  0.06826418  0.02989364    -0.06200
C894        C  0.22466715  0.06310371  0.03754068    -0.21200
C895        C  0.24939831  0.07953807  0.01306066     0.24500
C896        C  0.23929383  0.09948245  0.97886428    -0.18800
C897        C  0.20538916  0.10460725  0.97130690    -0.08800
C898        C  0.28536009  0.07428166  0.02286944    -0.19000
C899        C  0.31027361  0.09504865  0.01062423    -0.23800
C900        C  0.34610832  0.08617631  0.01461753     0.26500
C901        C  0.36836495  0.09399607  0.98101075    -0.20600
C902        C  0.39959414  0.07859127  0.97813457    -0.10200
C903        C  0.40904847  0.05570068  0.00928373    -0.10800
C904        C  0.38901236  0.05207844  0.04620553    -0.03700
C905        C  0.35760568  0.06697082  0.04873148    -0.18800
H906        H  0.17201807  0.05686465  0.05071970     0.10200
H907        H  0.23175672  0.04704604  0.06352492     0.10300
H908        H  0.25734428  0.11131196  0.95784443     0.10000
H909        H  0.19835926  0.12108879  0.94573031     0.11100
H910        H  0.29151829  0.05181033  0.03989709     0.11200
H911        H  0.30460026  0.11743960  0.99324287     0.13100
H912        H  0.36024043  0.10923940  0.95471646     0.09600
H913        H  0.41438148  0.08137733  0.94913764     0.11700
H914        H  0.39571440  0.03427684  0.07042905     0.08300
H915        H  0.34147846  0.06152781  0.07586915     0.11100
C916        C  0.40111201  0.94362447  0.62936066    -0.03500
C917        C  0.39124326  0.92185476  0.66201753    -0.06200
C918        C  0.35938898  0.90737631  0.66164355    -0.21200
C919        C  0.33681178  0.91510802  0.62916269     0.24500
C920        C  0.34810353  0.93389976  0.59411871    -0.18800
C921        C  0.37965000  0.94780300  0.92850999    -0.08800
C922        C  0.30108881  0.90584840  0.63488129    -0.19000
C923        C  0.27587642  0.92626239  0.62419223    -0.23800
C924        C  0.24020041  0.92008099  0.63617287     0.26500
C925        C  0.21464598  0.93549761  0.61304730    -0.20600
C926        C  0.18201774  0.93007343  0.96306575    -0.10200
C927        C  0.17304693  0.90541626  0.99248925    -0.10800
C928        C  0.19765166  0.89339671  0.68050259    -0.03700
C929        C  0.23120703  0.89994691  0.67109348    -0.18800
H930        H  0.40670439  0.91881091  0.68987759     0.10200
H931        H  0.35131338  0.89258470  0.68871784     0.10300
H932        H  0.33157984  0.93941180  0.56797714     0.10000
H933        H  0.38548261  0.96541331  0.90343194     0.11100
H934        H  0.29579195  0.88321547  0.65220127     0.11200
H935        H  0.28156421  0.94890463  0.60695592     0.13100
H936        H  0.22236863  0.95576966  0.93137214     0.09600
H937        H  0.16306909  0.94210050  0.94425396     0.11700
H938        H  0.19151459  0.87669613  0.70649293     0.08300
H939        H  0.24988468  0.88898012  0.69124247     0.11100
C940        C  0.80882713  0.89726519  0.99604532    -0.03500
C941        C  0.78897566  0.91434837  0.69316560    -0.06200
C942        C  0.75418536  0.91326912  0.68971292    -0.21200
C943        C  0.73888146  0.89797138  0.65481990     0.24500
C944        C  0.75926472  0.88371714  0.62307677    -0.18800
C945        C  0.79409146  0.88481538  0.62647330    -0.08800
C946        C  0.70171341  0.89761286  0.65342579    -0.19000
C947        C  0.68350284  0.89157014  0.61830676    -0.23800
C948        C  0.64711196  0.89868517  0.61788809     0.26500
C949        C  0.63377613  0.91471490  0.58229661    -0.20600
C950        C  0.60306324  0.93089219  0.58576075    -0.10200
C951        C  0.58659695  0.93466175  0.95129594    -0.10800
C952        C  0.59617222  0.91066004  0.65803072    -0.03700
C953        C  0.62686264  0.89445135  0.65458378    -0.18800
H954        H  0.79904993  0.92605588  0.72104376     0.10200
H955        H  0.73908726  0.92446932  0.71467466     0.10300
H956        H  0.74863944  0.87115169  0.59601562     0.10000
H957        H  0.80915300  0.87320007  0.60180634     0.11100
H958        H  0.68876468  0.90567089  0.68223166     0.11200
H959        H  0.69582445  0.88643775  0.58803553     0.13100
H960        H  0.64869564  0.91787644  0.55346528     0.09600
H961        H  0.59531353  0.94681761  0.55994503     0.11700
H962        H  0.58301757  0.91065069  0.68846494     0.08300
H963        H  0.63601464  0.88109983  0.68197383     0.11100
C964        C  0.59407365  0.05037614  0.98710147    -0.03500
C965        C  0.60219693  0.05820921  0.02937783    -0.06200
C966        C  0.63310929  0.07297292  0.03853278    -0.21200
C967        C  0.65647789  0.07927682  0.00561812     0.24500
C968        C  0.64673464  0.07475512  0.96310377    -0.18800
C969        C  0.61576758  0.06056339  0.95396313    -0.08800
C970        C  0.69162943  0.08794401  0.01600680    -0.19000
C971        C  0.71757543  0.07397036  0.99473356    -0.23800
C972        C  0.75377667  0.08097225  0.00193898     0.26500
C973        C  0.77774560  0.06283620  0.97855451    -0.20600
C974        C  0.81188948  0.07068172  0.98050605    -0.10200
C975        C  0.82275587  0.09703064  0.00570709    -0.10800
C976        C  0.79907480  0.11399267  0.03094684    -0.03700
C977        C  0.76502153  0.10616154  0.02909384    -0.18800
H978        H  0.58613435  0.05007157  0.05545790     0.10200
H979        H  0.63990814  0.07677048  0.07151427     0.10300
H980        H  0.66383807  0.08042317  0.93701233     0.10000
H981        H  0.60832258  0.05116008  0.59747506     0.11100
H982        H  0.69578960  0.10395313  0.04308247     0.11200
H983        H  0.71191940  0.05605030  0.97006876     0.13100
H984        H  0.76991939  0.04315942  0.95753129     0.09600
H985        H  0.83150895  0.05743239  0.62477003     0.11700
H986        H  0.80682930  0.13408342  0.05135212     0.08300
H987        H  0.74779368  0.12076525  0.04788073     0.11100
loop_ 
_geom_bond_atom_site_label_1 
_geom_bond_atom_site_label_2 
_geom_bond_distance 
_geom_bond_site_symmetry_2 
_ccdc_geom_bond_type 
C1            C6   1.410       .  A
C1          C660   1.393       .  A
C1          C951   1.476       .  S
C2            C3   1.394   1_565  A
C2          C330   1.393       .  A
C2           H21   1.087       .  S
C3            C4   1.415       .  A
C3          C306   1.480       .  S
C4            C5   1.424   1_545  A
C4           C11   1.406       .  A
C5          C335   1.422       .  A
C5          C339   1.417       .  A
C6            C7   1.405       .  A
C6          C663   1.423       .  A
C7            C8   1.395       .  A
C7           H17   1.083       .  S
C8            C9   1.404       .  A
C8           H18   1.083       .  S
C9           C10   1.426       .  A
C9           C16   1.412       .  A
C10         C663   1.418       .  A
C10         C671   1.424   1_565  A
C11          C12   1.398       .  A
C11          H19   1.083       .  S
C12          C13   1.405       .  A
C12          H20   1.083       .  S
C13          C14   1.413       .  A
C13         C339   1.424   1_545  A
C14         C344   1.393   1_545  A
C14         C245   1.478       .  S
C15          C16   1.391       .  A
C15         C672   1.392   1_565  A
C15          H22   1.087   1_565  S
C16         C258   1.479       .  S
C23          C27   1.534       .  S
C23         C353   1.539       .  S
C23         C358   1.525       .  S
C23         C282   1.525       .  S
C24         C681   1.544   1_554  S
C24          H31   1.082       .  S
C24          C25   1.367       .  D
C25         C684   1.541   1_554  S
C25          C54   1.477       .  S
C26          C28   1.548       .  S
C26         C354   1.546       .  S
C26         C359   1.552       .  S
C26          H32   1.111       .  S
C27          H33   1.086       .  S
C27          C28   1.366       .  D
C28          C55   1.477       .  S
C29         C681   1.530       .  S
C29          H34   1.087   1_556  S
C29          C30   1.364       .  D
C30         C684   1.549       .  S
C30         C210   1.490   1_556  S
N35          N36   1.325       .  A
N35          N41   1.318       .  A
N35         Mn64   2.224       .  S
N36          C43   1.355       .  A
N37          N39   1.319       .  A
N37          N38   1.317       .  A
N37         Mn53   2.198   1_455  S
N38          C44   1.349       .  A
N39          N40   1.326       .  A
N39         Mn64   2.231       .  S
N40          C44   1.356       .  A
N41          N42   1.317       .  A
N41         Mn53   2.195   1_455  S
N42          C43   1.349       .  A
C43          C97   1.475       .  S
C44          C94   1.478       .  S
N45          N51   1.317       .  A
N45          N46   1.319       .  A
N45         Mn75   2.205   1_565  S
N46          C54   1.352       .  A
N47          N48   1.325       .  A
N47          N49   1.317       .  A
N47         Mn53   2.216       .  S
N48          C55   1.354       .  A
N49          N50   1.318       .  A
N49         Mn75   2.203   1_565  S
N50          C55   1.352       .  A
N51          N52   1.324       .  A
N51         Mn53   2.216       .  S
N52          C54   1.353       .  A
Mn53        Cl77   2.539       .  S
N56          N57   1.329       .  A
N56          N62   1.317       .  A
N56         Mn64   2.235   1_545  S
N57          C65   1.359       .  A
N58          N60   1.316       .  A
N58          N59   1.314       .  A
N58         Mn76   2.187       .  S
N59          C66   1.348       .  A
N60          N61   1.330       .  A
N60         Mn64   2.234   1_545  S
N61          C66   1.359       .  A
N62          N63   1.315       .  A
N62         Mn76   2.189       .  S
N63          C65   1.348       .  A
Mn64        Cl77   2.575   1_455  S
C65         C109   1.482       .  S
C66         C106   1.482       .  S
N67          N68   1.328       .  A
N67          N73   1.315       .  A
N67         Mn75   2.221       .  S
N68          C78   1.357       .  A
N69          N70   1.317       .  A
N69          N71   1.316       .  A
N69         Mn76   2.195   1_655  S
N70          C79   1.350       .  A
N71          N72   1.328       .  A
N71         Mn75   2.230       .  S
N72          C79   1.358       .  A
N73          N74   1.315       .  A
N73         Mn76   2.190   1_655  S
N74          C78   1.349       .  A
Mn75        Cl77   2.570   1_545  S
Mn76        Cl77   2.524   1_445  S
C78          C85   1.480       .  S
C79          C82   1.482       .  S
C80          C81   1.536   1_556  S
C80          C86   1.528   1_556  S
C80         C742   1.544       .  S
C80         C186   1.540   1_556  S
C81          H88   1.086       .  S
C81          C82   1.371       .  D
C82         C741   1.545       .  S
C83          C87   1.550       .  S
C83          C85   1.544       .  S
C83         C411   1.546       .  S
C83          H89   1.110       .  S
C84         C409   1.538       .  S
C84          H90   1.082       .  S
C84          C85   1.366       .  D
C86          H91   1.087       .  S
C86         C745   1.365       .  D
C87         C415   1.365       .  D
C87         C317   1.489       .  S
C92          C93   1.535   1_556  S
C92          C98   1.526       .  S
C92         C754   1.543       .  S
C92         C162   1.532       .  S
C93         H100   1.086       .  S
C93          C94   1.370       .  D
C94         C753   1.544   1_554  S
C95          C99   1.541       .  S
C95          C97   1.539       .  S
C95         C423   1.544       .  S
C95         H101   1.111       .  S
C96         C421   1.544       .  S
C96         H102   1.082       .  S
C96          C97   1.370       .  D
C98         H103   1.087       .  S
C98         C757   1.361       .  D
C99         C427   1.360       .  D
C99         C269   1.478       .  S
C104        C110   1.524       .  S
C104        C108   1.534   1_556  S
C104        C763   1.538       .  S
C104        C149   1.534       .  S
C105        C433   1.540       .  S
C105        H112   1.081       .  S
C105        C106   1.370       .  D
C106        C107   1.545       .  S
C107        C111   1.549       .  S
C107        C438   1.545       .  S
C107        H113   1.111       .  S
C108        H114   1.087       .  S
C108        C109   1.371       .  D
C109        C765   1.544   1_554  S
C110        H115   1.087       .  S
C110        C769   1.363       .  D
C111        C439   1.364       .  D
C111        C234   1.481       .  S
C116        C117   1.391       .  A
C116        C121   1.408       .  A
C116        C173   1.477       .  S
C117        C118   1.396   1_455  A
C117        H136   1.087       .  S
C118        C119   1.423       .  A
C118        C221   1.491       .  S
C119        C120   1.427   1_655  A
C119        C126   1.407       .  A
C120        C121   1.424       .  A
C120        C125   1.421       .  A
C121        C122   1.404       .  A
C122        C123   1.393       .  A
C122        H132   1.083       .  S
C123        C124   1.404       .  A
C123        H133   1.083       .  S
C124        C125   1.425       .  A
C124        C131   1.410       .  A
C125        C128   1.425   1_455  A
C126        C127   1.403       .  A
C126        H134   1.083       .  S
C127        C128   1.406       .  A
C127        H135   1.083       .  S
C128        C129   1.419       .  A
C129        C130   1.395   1_655  A
C129        C197   1.482       .  S
C130        C131   1.390       .  A
C130        H137   1.087   1_455  S
C131        C138   1.478       .  S
C138        C139   1.403       .  A
C138        C143   1.402   1_554  A
C139        C140   1.399       .  A
C139        H152   1.083       .  S
C140        C141   1.404       .  A
C140        H153   1.083       .  S
C141        C142   1.409   1_554  A
C141        C144   1.489       .  S
C142        C143   1.399       .  A
C142        H812   1.082       .  S
C143        H155   1.083       .  S
C144        H156   1.083       .  S
C144        C145   1.350   1_554  D
C145        H815   1.086       .  S
C145        C146   1.492   1_556  S
C146        C151   1.408       .  A
C146        C805   1.403   1_554  A
C147        C148   1.397       .  A
C147        C475   1.404       .  A
C147        H158   1.084       .  S
C148        C478   1.409       .  A
C148        H159   1.077       .  S
C149        C150   1.410   1_556  A
C149        C806   1.410       .  A
C150        C151   1.401       .  A
C150        H160   1.083       .  S
C151        H161   1.080       .  S
H154        C471   1.083       .  S
H157        C474   1.086       .  S
C162        C167   1.411   1_556  A
C162        C821   1.409       .  A
C163        C164   1.398       .  A
C163        C491   1.408       .  A
C163        H176   1.077       .  S
C164        C494   1.404       .  A
C164        H177   1.084       .  S
C165        C166   1.406       .  A
C165        C822   1.404   1_554  A
C165        C168   1.491       .  S
C166        C167   1.400       .  A
C166        H178   1.080       .  S
C167        H179   1.083       .  S
C168        H838   1.086   1_554  S
C168        C169   1.351       .  D
C169        H181   1.084       .  S
C169        C170   1.486       .  S
C170        C171   1.403       .  A
C170        C175   1.407   1_554  A
C171        C172   1.399       .  A
C171        H182   1.083       .  S
C172        C173   1.404       .  A
C172        H183   1.083       .  S
C173        C174   1.403       .  A
C174        C175   1.397   1_554  A
C174        H842   1.084   1_554  S
C175        H843   1.083       .  S
H180        C497   1.086       .  S
H184        C503   1.083       .  S
H185        C504   1.083       .  S
C186        C191   1.412       .  A
C186        C845   1.410   1_554  A
C187        C188   1.399       .  A
C187        C515   1.412       .  A
C187        H200   1.077       .  S
C188        C518   1.403       .  A
C188        H201   1.084       .  S
C189        C190   1.408       .  A
C189        C846   1.404   1_554  A
C189        C850   1.498       .  S
C190        C191   1.405       .  A
C190        H202   1.080       .  S
C191        H203   1.083       .  S
C192        H204   1.086       .  S
C192        C522   1.352       .  D
C192        C518   1.496       .  S
C193        H205   1.083       .  S
C193        C850   1.353       .  D
C193        C194   1.494       .  S
C194        C195   1.404       .  A
C194        C199   1.408   1_554  A
C195        C196   1.403       .  A
C195        H206   1.083       .  S
C196        C197   1.405       .  A
C196        H207   1.083       .  S
C197        C198   1.405   1_554  A
C198        C199   1.401       .  A
C198        H866   1.083       .  S
C199        H867   1.083       .  S
H208        C527   1.083       .  S
H209        C528   1.082       .  S
C210        C211   1.402       .  A
C210        C873   1.406   1_554  A
C211        C212   1.406       .  A
C211        H224   1.083       .  S
C212        C213   1.410       .  A
C212        H225   1.083       .  S
C213        C872   1.408   1_554  A
C213        C216   1.500       .  S
C214        C215   1.399       .  A
C214        C542   1.408       .  A
C214        H226   1.079       .  S
C215        C539   1.408       .  A
C215        H227   1.083       .  S
C216        H228   1.086       .  S
C216        C217   1.356       .  D
C217        H887   1.082       .  S
C217        C218   1.492       .  S
C218        C223   1.405       .  A
C218        C877   1.407       .  A
C219        C547   1.408       .  A
C219        C549   1.405       .  A
C219        H230   1.083       .  S
C220        C221   1.404       .  A
C220        C877   1.404       .  A
C220        H889   1.083   1_554  S
C221        C222   1.410       .  A
C222        C223   1.400       .  A
C222        H232   1.084       .  S
C223        H233   1.083       .  S
H229        C546   1.082       .  S
H231        C549   1.083       .  S
C234        C235   1.401       .  A
C234        C239   1.404       .  A
C235        C236   1.404       .  A
C235        H248   1.083       .  S
C236        C237   1.408       .  A
C236        H249   1.083       .  S
C237        C238   1.406       .  A
C237        C240   1.490       .  S
C238        C239   1.396       .  A
C238        H250   1.081       .  S
C239        H251   1.083       .  S
C240        H252   1.086       .  S
C240        C241   1.353       .  D
C241        H253   1.084       .  S
C241        C242   1.484       .  S
C242        C243   1.404       .  A
C242        C247   1.405       .  A
C243        C244   1.400       .  A
C243        H254   1.083       .  S
C244        C245   1.403       .  A
C244        H255   1.083       .  S
C245        C246   1.406       .  A
C246        C247   1.398       .  A
C246        H256   1.084       .  S
C247        H257   1.083       .  S
C258        C259   1.403       .  A
C258        C921   1.406       .  A
C259        C260   1.401       .  A
C259        H272   1.083   1_556  S
C260        C261   1.405       .  A
C260        H273   1.083   1_556  S
C261        C262   1.404       .  A
C261        C264   1.484       .  S
C262        C921   1.397       .  A
C262        H274   1.083       .  S
C263        C587   1.405       .  A
C263        C591   1.396       .  A
C263        H275   1.083       .  S
C264        H276   1.084       .  S
C264        C265   1.353       .  D
C265        H277   1.086       .  S
C265        C266   1.490       .  S
C266        C267   1.408       .  A
C266        C271   1.406   1_556  A
C267        C926   1.404       .  A
C267        H936   1.083       .  S
C268        C269   1.402       .  A
C268        C596   1.403       .  A
C268        H279   1.083       .  S
C269        C599   1.403       .  A
C270        C271   1.394       .  A
C270        C927   1.405   1_554  A
C270        H280   1.083       .  S
C271        H281   1.081       .  S
H278        C596   1.083       .  S
C282        C612   1.408       .  A
C282        C616   1.409       .  A
C283        C284   1.397       .  A
C283        C940   1.409   1_554  A
C283        H296   1.077       .  S
C284        C285   1.404   1_554  A
C284        H297   1.084       .  S
C285        C286   1.406       .  A
C285        C288   1.488       .  S
C286        C287   1.398       .  A
C286        H298   1.080       .  S
C287        C940   1.410       .  A
C287        H299   1.083       .  S
C288        H300   1.087   1_556  S
C288        C289   1.349       .  D
C289        H301   1.084       .  S
C289        C290   1.484       .  S
C290        C291   1.403       .  A
C290        C295   1.407       .  A
C291        C292   1.398       .  A
C291        H302   1.083       .  S
C292        C951   1.403       .  A
C292        H303   1.083       .  S
C293        C621   1.403       .  A
C293        C623   1.402       .  A
C293        C330   1.475       .  S
C294        C295   1.398       .  A
C294        C951   1.402       .  A
C294        H304   1.083   1_556  S
C295        H305   1.083   1_556  S
C306        C307   1.403       .  A
C306        C311   1.404       .  A
C307        C308   1.401       .  A
C307        H320   1.083       .  S
C308        C309   1.405       .  A
C308        H321   1.083       .  S
C309        C310   1.406       .  A
C309        C312   1.486       .  S
C310        C311   1.398       .  A
C310        H322   1.083       .  S
C311        H652   1.083       .  S
C312        H324   1.084       .  S
C312        C313   1.352       .  D
C313        H325   1.087       .  S
C313        C314   1.491       .  S
C314        C315   1.409       .  A
C314        C319   1.405       .  A
C315        C316   1.403       .  A
C315        H326   1.083       .  S
C316        C317   1.402       .  A
C316        H656   1.083       .  S
C317        C318   1.408       .  A
C318        C319   1.396       .  A
C318        H328   1.083       .  S
C319        H329   1.081       .  S
H323        C969   1.084       .  S
H327        C974   1.083       .  S
C330        C335   1.409       .  A
C331        C659   1.393       .  A
C331        C332   1.393   1_565  A
C331        H350   1.087       .  S
C332        C333   1.416       .  A
C332        C635   1.483       .  S
C333        C334   1.426   1_545  A
C333        C340   1.406       .  A
C334        C664   1.423       .  A
C334        C668   1.419       .  A
C335        C336   1.405       .  A
C336        C337   1.394       .  A
C336        H346   1.083       .  S
C337        C338   1.404       .  A
C337        H347   1.083       .  S
C338        C339   1.425       .  A
C338        C345   1.410       .  A
C340        C341   1.399       .  A
C340        H348   1.083       .  S
C341        C342   1.405       .  A
C341        H349   1.083       .  S
C342        C668   1.424   1_545  A
C342        C343   1.414       .  A
C343        C673   1.392       .  A
C343        C574   1.478       .  S
C344        C345   1.389       .  A
C344        H351   1.087   1_565  S
C345        C587   1.476       .  S
C352        C682   1.542       .  S
C352        C687   1.526       .  S
C352        C356   1.529       .  S
C352        C611   1.528       .  S
C353        H360   1.085       .  S
C353        C354   1.368       .  D
C354        C383   1.480       .  S
C355        C683   1.548       .  S
C355        C688   1.555       .  S
C355        C357   1.549       .  S
C355        H361   1.110       .  S
C356        H362   1.087       .  S
C356        C357   1.365       .  D
C357        C384   1.478       .  S
C358        H363   1.087       .  S
C358        C359   1.364       .  D
C359        C539   1.494       .  S
N364        N365   1.325       .  A
N364        N370   1.317       .  A
N364       Mn393   2.213       .  S
N365        C372   1.355       .  A
N366        N368   1.318       .  A
N366        N367   1.316       .  A
N366       Mn382   2.195   1_455  S
N367        C373   1.349       .  A
N368        N369   1.326       .  A
N368       Mn393   2.226       .  S
N369        C373   1.356       .  A
N370        N371   1.316       .  A
N370       Mn382   2.195   1_455  S
N371        C372   1.350       .  A
C372        C426   1.474       .  S
C373        C423   1.476       .  S
N374        N380   1.318       .  A
N374        N375   1.320       .  A
N374       Mn404   2.213   1_565  S
N375        C383   1.353       .  A
N376        N377   1.325       .  A
N376        N378   1.317       .  A
N376       Mn382   2.211       .  S
N377        C384   1.353       .  A
N378        N379   1.318       .  A
N378       Mn404   2.211   1_565  S
N379        C384   1.353       .  A
N380        N381   1.325       .  A
N380       Mn382   2.215       .  S
N381        C383   1.353       .  A
Mn382      Cl406   2.536       .  S
N385        N386   1.327       .  A
N385        N391   1.317       .  A
N385       Mn393   2.222   1_545  S
N386        C394   1.357       .  A
N387        N389   1.316       .  A
N387        N388   1.313       .  A
N387       Mn405   2.188       .  S
N388        C395   1.348       .  A
N389        N390   1.329       .  A
N389       Mn393   2.226   1_545  S
N390        C395   1.359       .  A
N391        N392   1.316       .  A
N391       Mn405   2.198       .  S
N392        C394   1.350       .  A
Mn393      Cl406   2.577   1_455  S
C394        C438   1.479       .  S
C395        C435   1.481       .  S
N396        N397   1.329       .  A
N396        N402   1.316       .  A
N396       Mn404   2.232       .  S
N397        C407   1.359       .  A
N398        N399   1.318       .  A
N398        N400   1.317       .  A
N398       Mn405   2.195   1_655  S
N399        C408   1.350       .  A
N400        N401   1.328       .  A
N400       Mn404   2.234       .  S
N401        C408   1.359       .  A
N402        N403   1.317       .  A
N402       Mn405   2.198   1_655  S
N403        C407   1.351       .  A
Mn404      Cl406   2.568   1_545  S
Mn405      Cl406   2.526   1_445  S
C407        C414   1.487       .  S
C408        C411   1.484       .  S
C409        C410   1.538       .  S
C409        C415   1.525       .  S
C409        C515   1.536       .  S
C410        H417   1.086       .  S
C410        C411   1.373       .  D
C412        C740   1.545       .  S
C412        C416   1.548       .  S
C412        C414   1.545       .  S
C412        H418   1.111       .  S
C413        C738   1.543       .  S
C413        H419   1.081       .  S
C413        C414   1.369       .  D
C415        H420   1.086       .  S
C416        C744   1.365       .  D
C416        C646   1.487       .  S
C421        C422   1.534       .  S
C421        C427   1.526       .  S
C421        C491   1.529       .  S
C422        H429   1.086       .  S
C422        C423   1.370       .  D
C424        C752   1.548       .  S
C424        C428   1.545       .  S
C424        C426   1.541       .  S
C424        H430   1.111       .  S
C425        C750   1.539       .  S
C425        H431   1.082       .  S
C425        C426   1.367       .  D
C427        H432   1.087       .  S
C428        C756   1.362       .  D
C428        C598   1.481       .  S
C433        C439   1.527       .  S
C433        C437   1.531       .  S
C433        C478   1.533       .  S
C434        C762   1.536       .  S
C434        H441   1.081       .  S
C434        C435   1.367       .  D
C435        C436   1.547       .  S
C436        C440   1.550       .  S
C436        C767   1.546       .  S
C436        H442   1.111       .  S
C437        H443   1.087       .  S
C437        C438   1.367       .  D
C439        H444   1.087       .  S
C440        C768   1.364       .  D
C440        C563   1.481       .  S
C445        C446   1.391       .  A
C445        C450   1.409       .  A
C445        C502   1.477       .  S
C446        C447   1.394   1_455  A
C446        H465   1.087       .  S
C447        C448   1.423       .  A
C447        C550   1.490       .  S
C448        C449   1.428   1_655  A
C448        C455   1.407       .  A
C449        C450   1.424       .  A
C449        C454   1.422       .  A
C450        C451   1.404       .  A
C451        C452   1.394       .  A
C451        H461   1.083       .  S
C452        C453   1.404       .  A
C452        H462   1.083       .  S
C453        C454   1.425       .  A
C453        C460   1.411       .  A
C454        C457   1.425   1_455  A
C455        C456   1.403       .  A
C455        H463   1.083       .  S
C456        C457   1.407       .  A
C456        H464   1.083       .  S
C457        C458   1.419       .  A
C458        C459   1.394   1_655  A
C458        C526   1.482       .  S
C459        C460   1.391       .  A
C459        H466   1.087       .  S
C460        C467   1.478       .  S
C467        C468   1.404       .  A
C467        C472   1.402       .  A
C468        C469   1.401       .  A
C468        H481   1.083       .  S
C469        C470   1.404       .  A
C469        H482   1.083       .  S
C470        C471   1.407       .  A
C470        C473   1.488       .  S
C471        C472   1.397       .  A
C472        H484   1.083       .  S
C473        H485   1.083       .  S
C473        C474   1.351       .  D
C474        C475   1.492       .  S
C475        C480   1.407       .  A
C476        C804   1.402       .  A
C476        C477   1.395       .  A
C476        H487   1.084       .  S
C477        C807   1.410       .  A
C477        H488   1.076       .  S
C478        C479   1.411       .  A
C479        C480   1.401       .  A
C479        H489   1.083       .  S
C480        H490   1.080       .  S
H483        C800   1.082       .  S
H486        C803   1.086       .  S
C491        C496   1.410       .  A
C492        C820   1.410       .  A
C492        C493   1.398       .  A
C492        H505   1.077       .  S
C493        C823   1.403       .  A
C493        H506   1.084       .  S
C494        C495   1.407       .  A
C494        C497   1.492       .  S
C495        C496   1.400       .  A
C495        H507   1.080       .  S
C496        H508   1.083       .  S
C497        C498   1.351       .  D
C498        H510   1.083       .  S
C498        C499   1.487       .  S
C499        C500   1.403       .  A
C499        C504   1.407       .  A
C500        C501   1.399       .  A
C500        H511   1.083       .  S
C501        C502   1.404       .  A
C501        H512   1.083       .  S
C502        C503   1.403       .  A
C503        C504   1.398       .  A
H509        C826   1.086       .  S
H513        C832   1.083       .  S
H514        C833   1.083       .  S
C515        C520   1.410       .  A
C516        C844   1.410       .  A
C516        C517   1.399       .  A
C516        H529   1.077       .  S
C517        C847   1.404       .  A
C517        H530   1.083       .  S
C518        C519   1.408       .  A
C519        C520   1.403       .  A
C519        H531   1.080       .  S
C520        H532   1.083       .  S
C521        H533   1.086       .  S
C521        C851   1.353       .  D
C521        C847   1.496       .  S
C522        H534   1.084       .  S
C522        C523   1.493       .  S
C523        C524   1.405       .  A
C523        C528   1.408       .  A
C524        C525   1.402       .  A
C524        H535   1.083       .  S
C525        C526   1.404       .  A
C525        H536   1.083       .  S
C526        C527   1.405       .  A
C527        C528   1.401       .  A
H537        C856   1.083       .  S
H538        C857   1.082       .  S
C539        C540   1.403       .  A
C540        C541   1.407       .  A
C540        H553   1.083       .  S
C541        C542   1.411       .  A
C541        H554   1.083       .  S
C542        C545   1.503       .  S
C543        C871   1.406       .  A
C543        C544   1.397       .  A
C543        H555   1.079       .  S
C544        C868   1.410       .  A
C544        H556   1.082       .  S
C545        H557   1.086       .  S
C545        C546   1.357       .  D
C546        C547   1.495       .  S
C547        C552   1.406       .  A
C548        C876   1.407       .  A
C548        C878   1.404       .  A
C548        H559   1.083       .  S
C549        C550   1.403       .  A
C550        C551   1.410       .  A
C551        C552   1.401       .  A
C551        H561   1.084       .  S
C552        H562   1.082       .  S
H558        C875   1.082       .  S
H560        C878   1.083       .  S
C563        C564   1.401       .  A
C563        C568   1.404       .  A
C564        C565   1.404       .  A
C564        H577   1.083       .  S
C565        C566   1.409       .  A
C565        H578   1.083       .  S
C566        C567   1.406       .  A
C566        C569   1.492       .  S
C567        C568   1.395       .  A
C567        H579   1.081       .  S
C568        H580   1.084       .  S
C569        H581   1.086       .  S
C569        C570   1.353       .  D
C570        H582   1.084       .  S
C570        C571   1.486       .  S
C571        C572   1.405       .  A
C571        C576   1.405       .  A
C572        C573   1.401       .  A
C572        H583   1.083       .  S
C573        C574   1.404       .  A
C573        H584   1.083       .  S
C574        C575   1.406       .  A
C575        C576   1.398       .  A
C575        H585   1.084       .  S
C576        H586   1.083       .  S
C587        C588   1.402       .  A
C588        C589   1.399       .  A
C588        H601   1.083       .  S
C589        C590   1.405       .  A
C589        H602   1.083       .  S
C590        C591   1.404       .  A
C590        C593   1.481       .  S
C591        H603   1.083       .  S
C592        C916   1.406       .  A
C592        C920   1.398       .  A
C592        H604   1.083       .  S
C593        H605   1.084       .  S
C593        C594   1.351       .  D
C594        H606   1.086       .  S
C594        C595   1.488       .  S
C595        C596   1.408       .  A
C595        C600   1.406       .  A
C597        C925   1.404       .  A
C597        C598   1.402       .  A
C597        H608   1.083       .  S
C598        C928   1.404       .  A
C599        C600   1.393       .  A
C599        H609   1.084       .  S
C600        H610   1.081       .  S
H607        C925   1.083       .  S
C611        C941   1.407       .  A
C611        C945   1.411       .  A
C612        C613   1.398       .  A
C612        H625   1.081       .  S
C613        C614   1.403       .  A
C613        H626   1.084       .  S
C614        C615   1.406       .  A
C614        C617   1.486       .  S
C615        C616   1.397       .  A
C615        H627   1.081       .  S
C616        H628   1.082       .  S
C617        H629   1.086       .  S
C617        C618   1.349       .  D
C618        H630   1.084       .  S
C618        C619   1.482       .  S
C619        C620   1.403       .  A
C619        C624   1.407       .  A
C620        C621   1.398       .  A
C620        H631   1.083       .  S
C621        H632   1.083       .  S
C622        C950   1.404       .  A
C622        C952   1.401       .  A
C622        C659   1.475       .  S
C623        C624   1.397       .  A
C623        H633   1.083       .  S
C624        H634   1.083       .  S
C635        C636   1.404       .  A
C635        C640   1.405       .  A
C636        C637   1.404       .  A
C636        H649   1.083       .  S
C637        C638   1.406       .  A
C637        H650   1.083       .  S
C638        C639   1.406       .  A
C638        C641   1.490       .  S
C639        C640   1.398       .  A
C639        H651   1.083       .  S
C640        H981   1.084       .  S
C641        H653   1.084       .  S
C641        C642   1.353       .  D
C642        H654   1.086       .  S
C642        C643   1.494       .  S
C643        C644   1.409       .  A
C643        C648   1.407       .  A
C644        C645   1.403       .  A
C644        H655   1.083       .  S
C645        C646   1.401       .  A
C645        H985   1.083       .  S
C646        C647   1.407       .  A
C647        C648   1.399       .  A
C647        H657   1.083       .  S
C648        H658   1.080       .  S
C659        C664   1.410       .  A
C660        C661   1.394   1_565  A
C660        H679   1.087       .  S
C661        C662   1.416       .  A
C661        C964   1.484       .  S
C662        C663   1.425   1_545  A
C662        C669   1.405       .  A
C664        C665   1.405       .  A
C665        C666   1.395       .  A
C665        H675   1.083       .  S
C666        C667   1.404       .  A
C666        H676   1.083       .  S
C667        C668   1.426       .  A
C667        C674   1.412       .  A
C669        C670   1.398   1_556  A
C669        H677   1.083   1_556  S
C670        C671   1.405   1_554  A
C670        H678   1.083       .  S
C671        C672   1.413       .  A
C672        C903   1.479   1_556  S
C673        C674   1.390   1_545  A
C673        H680   1.087       .  S
C674        C916   1.479       .  S
C681        C685   1.532       .  S
C681        C940   1.529       .  S
C682        H689   1.082       .  S
C682        C683   1.368       .  D
C683        C712   1.482       .  S
C684        C686   1.547       .  S
C684        H690   1.111       .  S
C685        H691   1.087       .  S
C685        C686   1.366       .  D
C686        C713   1.478       .  S
C687        H692   1.086       .  S
C687        C688   1.366       .  D
C688        C868   1.501       .  S
N693        N694   1.326       .  A
N693        N699   1.318       .  A
N693       Mn722   2.225       .  S
N694        C701   1.356       .  A
N695        N697   1.318       .  A
N695        N696   1.317       .  A
N695       Mn711   2.200   1_455  S
N696        C702   1.350       .  A
N697        N698   1.327       .  A
N697       Mn722   2.230       .  S
N698        C702   1.357       .  A
N699        N700   1.318       .  A
N699       Mn711   2.202   1_455  S
N700        C701   1.351       .  A
C701        C755   1.479       .  S
C702        C752   1.481       .  S
N703        N709   1.318       .  A
N703        N704   1.320       .  A
N703       Mn733   2.214   1_565  S
N704        C712   1.354       .  A
N705        N706   1.325       .  A
N705        N707   1.318       .  A
N705       Mn711   2.215       .  S
N706        C713   1.353       .  A
N707        N708   1.319       .  A
N707       Mn733   2.211   1_565  S
N708        C713   1.353       .  A
N709        N710   1.325       .  A
N709       Mn711   2.217       .  S
N710        C712   1.354       .  A
Mn711      Cl735   2.538       .  S
N714        N715   1.328       .  A
N714        N720   1.316       .  A
N714       Mn722   2.228   1_545  S
N715        C723   1.359       .  A
N716        N718   1.317       .  A
N716        N717   1.314       .  A
N716       Mn734   2.190       .  S
N717        C724   1.349       .  A
N718        N719   1.330       .  A
N718       Mn722   2.234   1_545  S
N719        C724   1.359       .  A
N720        N721   1.315       .  A
N720       Mn734   2.192       .  S
N721        C723   1.349       .  A
Mn722      Cl735   2.578   1_455  S
C723        C767   1.481       .  S
C724        C764   1.483       .  S
N725        N726   1.329       .  A
N725        N731   1.316       .  A
N725       Mn733   2.237       .  S
N726        C736   1.359       .  A
N727        N728   1.317       .  A
N727        N729   1.316       .  A
N727       Mn734   2.192   1_655  S
N728        C737   1.349       .  A
N729        N730   1.327       .  A
N729       Mn733   2.231       .  S
N730        C737   1.358       .  A
N731        N732   1.318       .  A
N731       Mn734   2.199   1_655  S
N732        C736   1.351       .  A
Mn733      Cl735   2.571   1_545  S
Mn734      Cl735   2.527   1_445  S
C736        C743   1.488       .  S
C737        C740   1.481       .  S
C738        C739   1.536       .  S
C738        C744   1.529       .  S
C738        C844   1.539       .  S
C739        H746   1.086       .  S
C739        C740   1.371       .  D
C741        C745   1.550       .  S
C741        C743   1.545   1_554  S
C741        H747   1.111       .  S
C742        H748   1.081       .  S
C742        C743   1.370       .  D
C744        H749   1.087       .  S
C745        C975   1.489       .  S
C750        C751   1.535       .  S
C750        C756   1.526       .  S
C750        C820   1.529       .  S
C751        H758   1.086       .  S
C751        C752   1.370       .  D
C753        C757   1.544       .  S
C753        C755   1.542       .  S
C753        H759   1.111       .  S
C754        H760   1.082       .  S
C754        C755   1.369       .  D
C756        H761   1.087       .  S
C757        C927   1.482       .  S
C762        C768   1.524       .  S
C762        C766   1.533       .  S
C762        C807   1.533       .  S
C763        H770   1.080       .  S
C763        C764   1.369       .  D
C764        C765   1.547       .  S
C765        C769   1.552       .  S
C765        H771   1.111       .  S
C766        H772   1.086       .  S
C766        C767   1.370       .  D
C768        H773   1.087       .  S
C769        C892   1.483       .  S
C774        C775   1.391       .  A
C774        C779   1.410       .  A
C774        C831   1.477       .  S
C775        C776   1.393   1_455  A
C775        H794   1.087       .  S
C776        C777   1.421       .  A
C776        C879   1.489       .  S
C777        C778   1.428   1_655  A
C777        C784   1.406       .  A
C778        C779   1.424       .  A
C778        C783   1.421       .  A
C779        C780   1.404       .  A
C780        C781   1.395       .  A
C780        H790   1.083       .  S
C781        C782   1.404       .  A
C781        H791   1.083       .  S
C782        C783   1.426       .  A
C782        C789   1.412       .  A
C783        C786   1.425   1_455  A
C784        C785   1.402       .  A
C784        H792   1.083       .  S
C785        C786   1.406       .  A
C785        H793   1.083       .  S
C786        C787   1.418       .  A
C787        C788   1.395   1_655  A
C787        C855   1.482       .  S
C788        C789   1.391       .  A
C788        H795   1.087       .  S
C789        C796   1.479       .  S
C796        C797   1.403       .  A
C796        C801   1.403       .  A
C797        C798   1.401       .  A
C797        H810   1.083       .  S
C798        C799   1.404       .  A
C798        H811   1.083       .  S
C799        C800   1.408       .  A
C799        C802   1.489       .  S
C800        C801   1.397       .  A
C801        H813   1.083       .  S
C802        H814   1.084       .  S
C802        C803   1.350       .  D
C803        C804   1.490       .  S
C804        C809   1.407       .  A
C805        C806   1.397       .  A
C805        H816   1.084       .  S
C806        H817   1.075       .  S
C807        C808   1.410       .  A
C808        C809   1.402       .  A
C808        H818   1.083       .  S
C809        H819   1.080       .  S
C820        C825   1.409       .  A
C821        C822   1.399       .  A
C821        H834   1.077       .  S
C822        H835   1.084       .  S
C823        C824   1.406       .  A
C823        C826   1.490       .  S
C824        C825   1.399       .  A
C824        H836   1.080       .  S
C825        H837   1.083       .  S
C826        C827   1.350       .  D
C827        H839   1.084       .  S
C827        C828   1.485       .  S
C828        C829   1.403       .  A
C828        C833   1.406       .  A
C829        C830   1.399       .  A
C829        H840   1.083       .  S
C830        C831   1.404       .  A
C830        H841   1.083       .  S
C831        C832   1.404       .  A
C832        C833   1.399       .  A
C844        C849   1.412       .  A
C845        C846   1.400       .  A
C845        H858   1.076       .  S
C846        H859   1.084       .  S
C847        C848   1.407       .  A
C848        C849   1.405       .  A
C848        H860   1.081       .  S
C849        H861   1.083       .  S
C850        H862   1.086   1_554  S
C851        H863   1.084       .  S
C851        C852   1.494       .  S
C852        C853   1.405       .  A
C852        C857   1.408       .  A
C853        C854   1.403       .  A
C853        H864   1.083       .  S
C854        C855   1.405       .  A
C854        H865   1.083       .  S
C855        C856   1.405       .  A
C856        C857   1.400       .  A
C868        C869   1.404       .  A
C869        C870   1.409       .  A
C869        H882   1.083       .  S
C870        C871   1.412       .  A
C870        H883   1.083       .  S
C871        C874   1.503       .  S
C872        C873   1.399       .  A
C872        H884   1.080       .  S
C873        H885   1.083       .  S
C874        H886   1.086       .  S
C874        C875   1.357       .  D
C875        C876   1.493       .  S
C876        C881   1.405       .  A
C877        H888   1.083   1_554  S
C878        C879   1.403       .  A
C879        C880   1.410       .  A
C880        C881   1.401       .  A
C880        H890   1.084       .  S
C881        H891   1.083       .  S
C892        C893   1.402   1_556  A
C892        C897   1.406       .  A
C893        C894   1.404       .  A
C893        H906   1.083       .  S
C894        C895   1.408       .  A
C894        H907   1.083       .  S
C895        C896   1.406   1_554  A
C895        C898   1.490       .  S
C896        C897   1.396       .  A
C896        H908   1.081       .  S
C897        H909   1.083       .  S
C898        H910   1.086       .  S
C898        C899   1.353       .  D
C899        H911   1.084   1_554  S
C899        C900   1.486       .  S
C900        C901   1.405   1_554  A
C900        C905   1.405       .  A
C901        C902   1.401       .  A
C901        H912   1.083       .  S
C902        C903   1.402   1_556  A
C902        H913   1.083       .  S
C903        C904   1.406       .  A
C904        C905   1.397       .  A
C904        H914   1.084       .  S
C905        H915   1.083       .  S
C916        C917   1.402       .  A
C917        C918   1.400       .  A
C917        H930   1.083       .  S
C918        C919   1.405       .  A
C918        H931   1.083       .  S
C919        C920   1.404       .  A
C919        C922   1.484       .  S
C920        H932   1.083       .  S
C921        H933   1.083       .  S
C922        H934   1.084       .  S
C922        C923   1.352       .  D
C923        H935   1.086       .  S
C923        C924   1.490       .  S
C924        C925   1.408       .  A
C924        C929   1.406       .  A
C926        C927   1.401       .  A
C926        H937   1.083       .  S
C928        C929   1.394       .  A
C928        H938   1.083       .  S
C929        H939   1.081       .  S
C941        C942   1.397       .  A
C941        H954   1.077       .  S
C942        C943   1.404       .  A
C942        H955   1.084       .  S
C943        C944   1.405       .  A
C943        C946   1.487       .  S
C944        C945   1.398       .  A
C944        H956   1.081       .  S
C945        H957   1.083       .  S
C946        H958   1.086       .  S
C946        C947   1.349       .  D
C947        H959   1.084       .  S
C947        C948   1.485       .  S
C948        C949   1.402       .  A
C948        C953   1.408       .  A
C949        C950   1.398       .  A
C949        H960   1.083       .  S
C950        H961   1.084       .  S
C952        C953   1.398       .  A
C952        H962   1.083       .  S
C953        H963   1.083       .  S
C964        C965   1.405   1_556  A
C964        C969   1.405       .  A
C965        C966   1.404       .  A
C965        H978   1.083       .  S
C966        C967   1.405       .  A
C966        H979   1.083       .  S
C967        C968   1.405   1_554  A
C967        C970   1.487       .  S
C968        C969   1.396       .  A
C968        H980   1.083       .  S
C970        H982   1.083       .  S
C970        C971   1.353   1_554  D
C971        H983   1.087       .  S
C971        C972   1.494   1_556  S
C972        C973   1.409   1_554  A
C972        C977   1.406       .  A
C973        C974   1.402       .  A
C973        H984   1.083       .  S
C974        C975   1.400   1_556  A
C975        C976   1.408       .  A
C976        C977   1.399       .  A
C976        H986   1.083       .  S
C977        H987   1.080       .  S
