geometry optimzed in LAMMPS
_audit_creation_date              2020-11-30 
_audit_creation_method            'lammps2cif' 
_symmetry_space_group_name_H-M    'P1' 
_symmetry_Int_Tables_number       1 
_symmetry_cell_setting            triclinic 
loop_ 
_symmetry_equiv_pos_as_xyz 
  x,y,z 
_cell_length_a                    32.35706447 
_cell_length_b                    32.73323667332813 
_cell_length_c                    31.249715200784106 
_cell_angle_alpha                 90.20544059504422 
_cell_angle_beta                  89.76009533848224 
_cell_angle_gamma                 89.88164827227419 
loop_ 
_atom_site_label 
_atom_site_type_symbol 
_atom_site_fract_x 
_atom_site_fract_y 
_atom_site_fract_z 
_atom_site_charge 
C1          C  0.53904864  0.01507416  0.24596030     0.01900
C2          C  0.53557296  0.97198146  0.91437543     0.01800
C3          C  0.49656672  0.95381061  0.91694688    -0.18700
C4          C  0.46103783  0.97783356  0.91910637     0.01900
C5          C  0.46427189  0.02077791  0.25115812     0.01800
C6          C  0.50316562  0.03920640  0.24735317    -0.18700
H7          H  0.50564648  0.07221509  0.24799679     0.03900
H8          H  0.49398791  0.92087387  0.91943486     0.03900
C9          C  0.81928699  0.87061129  0.29967125     0.86100
C10         C  0.84038044  0.88863319  0.33947866    -0.54200
C11         C  0.88231317  0.88405844  0.33946240     0.09000
C12         C  0.89965936  0.86146813  0.30000930     0.20000
C13         C  0.84156833  0.89155898  0.26226817    -0.54900
C14         C  0.88343654  0.88684288  0.26239451     0.09100
C15         C  0.83353198  0.82613811  0.29808011    -0.54400
C16         C  0.87543486  0.82099654  0.29755022     0.09700
H17         H  0.82480170  0.90541267  0.36471549     0.14200
H18         H  0.93380781  0.85809717  0.29990554    -0.00100
H19         H  0.82550128  0.90924620  0.23808672     0.14500
H20         H  0.81187926  0.80084273  0.29684105     0.14300
C21         C  0.90984790  0.90753923  0.23089255     0.42100
N22         N  0.92678609  0.94795902  0.18023290     0.00900
C23         C  0.10209125  0.94230841  0.05248407    -0.06900
H24         H  0.13190706  0.96162495  0.21475979     0.06400
C25         C  0.05117866  0.09688656  0.20611310    -0.07300
Co26       Co  0.00188974  0.91996390  0.13266863     0.74200
N27         N  0.07680038  0.95172551  0.17713035    -0.26500
Co28       Co  0.07605096  0.99654283  0.12967330     0.74100
C29         C  0.08943444  0.08380241  0.22617086     0.42200
N30         N  0.95342885  0.06783794  0.17792565     0.00600
N31         N  0.07473883  0.04232905  0.17574587     0.00700
N32         N  0.05390575  0.89229636  0.05673400    -0.47300
H33         H  0.96626645  0.86602142  0.21853950     0.06400
N34         N  0.04833457  0.92287620  0.17781361     0.00900
N35         N  0.07294889  0.04154839  0.08200671     0.00700
C36         C  0.08612461  0.08359332  0.36470591     0.42300
N37         N  0.92514666  0.03892555  0.17972705    -0.25900
C38         C  0.94719918  0.89133507  0.05612106    -0.06800
N39         N  0.89806963  0.94121139  0.20950323    -0.47000
N40         N  0.10035262  0.04976237  0.05139551    -0.47200
C41         C  0.90798718  0.90470691  0.37149430     0.42100
N42         N  0.04721673  0.92119176  0.08552613     0.00900
N43         N  0.92237009  0.03753520  0.08628644    -0.25900
N44         N  0.95636390  0.92014228  0.18031211    -0.26400
N45         N  0.95067033  0.06647962  0.08554879     0.00600
H46         H  0.86583470  0.02861822  0.38394333     0.06500
H47         H  0.02866526  0.12231493  0.38024709     0.06500
N48         N  0.07525213  0.95041913  0.08415166    -0.26500
N49         N  0.04456616  0.06946682  0.17538426    -0.26100
N50         N  0.92524729  0.94628381  0.08780050     0.00900
C51         C  0.08964476  0.90643599  0.22794949     0.42300
C52         C  0.89953601  0.04721013  0.21257447    -0.07300
N53         N  0.04240364  0.06830634  0.08309365    -0.26100
H54         H  0.03216420  0.12343188  0.21267061     0.06500
N55         N  0.05519315  0.89497069  0.20726918    -0.47300
H56         H  0.87243325  0.02978645  0.22134424     0.06500
C57         C  0.90748011  0.08421238  0.37067693     0.42200
C58         C  0.94857244  0.89332101  0.21180998    -0.06800
Co59       Co  0.92408414  0.99259608  0.13349461     0.73800
N60         N  0.94828352  0.09649917  0.20730905    -0.47000
C61         C  0.08774377  0.90381865  0.36801707     0.42400
N62         N  0.89611761  0.93870588  0.05939026    -0.47000
Co63       Co  0.99776317  0.06853541  0.13039249     0.73900
C64         C  0.04796953  0.09582619  0.05235933    -0.07400
C65         C  0.10423444  0.94420571  0.20835345    -0.11100
N66         N  0.95513917  0.91876399  0.08706547    -0.26400
N67         N  0.10275334  0.04988394  0.20566762    -0.47200
H68         H  0.12939564  0.95988887  0.37809726     0.06400
C69         C  0.89384252  0.04576691  0.05626185    -0.07300
Cl70       Cl  0.99992864  0.99437708  0.13146249    -0.50300
C71         C  0.91517559  0.08540253  0.23059198     0.42200
H72         H  0.96531141  0.86434224  0.38227212     0.06400
N73         N  0.94264672  0.09518623  0.05719421    -0.47000
C74         C  0.87878060  0.17473038  0.30095099     0.86100
C75         C  0.89144953  0.15216260  0.34172898    -0.54200
C76         C  0.88616975  0.11083586  0.33995217     0.09000
C77         C  0.86661005  0.09562855  0.29800765     0.20000
C78         C  0.90261078  0.15274675  0.26500948    -0.54900
C79         C  0.89595684  0.11156686  0.26329660     0.09100
C80         C  0.83336841  0.16235937  0.29410268    -0.54400
C81         C  0.82701873  0.12113406  0.29189808     0.09700
H82         H  0.90636862  0.16724889  0.36855187     0.14200
H83         H  0.86194568  0.06204783  0.29665955    -0.00100
H84         H  0.92268881  0.16858238  0.24259777     0.14500
H85         H  0.80788547  0.18358155  0.29144524     0.14300
C86         C  0.12425776  0.81635430  0.29610818     0.86100
C87         C  0.10325370  0.83702012  0.33481531    -0.54200
C88         C  0.10824934  0.87836733  0.33582852     0.09000
C89         C  0.13360940  0.89565001  0.29846801     0.20000
C90         C  0.10567135  0.83878068  0.25772404    -0.54900
C91         C  0.11050572  0.88010260  0.25893233     0.09100
C92         C  0.16933182  0.83011869  0.29801100    -0.54400
C93         C  0.17443626  0.87146806  0.29921630     0.09700
H94         H  0.08458688  0.82160651  0.35857524     0.14200
H95         H  0.13717749  0.92938320  0.29950391    -0.00100
H96         H  0.08881947  0.82329786  0.23241232     0.14500
H97         H  0.19507190  0.80878219  0.29706487     0.14300
C98         C  0.12505619  0.17169307  0.29562263     0.86100
C99         C  0.10892710  0.14981177  0.25591201    -0.54200
C100        C  0.11308847  0.10856299  0.25656585     0.09000
C101        C  0.13526548  0.09232391  0.29651800     0.20000
C102        C  0.10390233  0.15042168  0.33332449    -0.54900
C103        C  0.10891354  0.10895273  0.33382997     0.09100
C104        C  0.17039710  0.15846271  0.29858251    -0.54400
C105        C  0.17583515  0.11701652  0.29896018     0.09700
H106        H  0.09302063  0.16574126  0.23031787     0.14200
H107        H  0.13921802  0.05860453  0.29677499    -0.00100
H108        H  0.08542778  0.16685955  0.35686153     0.14500
H109        H  0.19643589  0.17917169  0.29904463     0.14300
C110        C  0.98775268  0.53621998  0.93169501     0.01900
C111        C  0.03083890  0.53250247  0.92549835     0.01800
C112        C  0.04901416  0.49401854  0.92365765    -0.18700
C113        C  0.02509159  0.45901617  0.92882526     0.01900
C114        C  0.98209088  0.46238992  0.93652190     0.01800
C115        C  0.96348342  0.50109138  0.93673889    -0.18700
H116        H  0.93063203  0.50399479  0.94304998     0.03900
H117        H  0.08217818  0.49133393  0.91913156     0.03900
C118        C  0.04896238  0.34900836  0.23783877    -0.11200
C119        C  0.07826933  0.34035656  0.26957270     0.05900
C120        C  0.09294958  0.37188001  0.96255378    -0.10000
C121        C  0.07682035  0.41112471  0.95879500    -0.11600
C122        C  0.04602833  0.41918496  0.26192603    -0.01400
C123        C  0.03317527  0.38835295  0.23380902    -0.10500
C124        C  0.09108885  0.29803179  0.27745929     0.05900
H125        H  0.11531712  0.36570141  0.98739676     0.07800
H126        H  0.08691823  0.43474331  0.98074031     0.11300
H127        H  0.00989308  0.39445968  0.20986843     0.11600
H128        H  0.03766929  0.32513435  0.21686612     0.07900
C129        C  0.06111808  0.26742749  0.28018426    -0.11200
C130        C  0.07264629  0.22742692  0.28856832    -0.10500
C131        C  0.11458947  0.21674543  0.29313875    -0.01400
C132        C  0.14455419  0.24782611  0.29141091    -0.11600
C133        C  0.13279288  0.28818086  0.28380425    -0.10000
H134        H  0.02871009  0.27448735  0.27583192     0.07900
H135        H  0.04878812  0.20426996  0.28987506     0.11600
H136        H  0.17710651  0.24158985  0.96164515     0.11300
H137        H  0.15629542  0.31156446  0.94864401     0.07900
C138        C  0.09765819  0.70394908  0.31648576    -0.11200
C139        C  0.10935300  0.68624003  0.27735900     0.05900
C140        C  0.12867896  0.71023020  0.24620255    -0.10000
C141        C  0.13477258  0.75178552  0.25354449    -0.11600
C142        C  0.12056927  0.77037099  0.29163170    -0.01400
C143        C  0.10324132  0.74553294  0.32365712    -0.10500
C144        C  0.09718032  0.64394484  0.26800278     0.05900
H145        H  0.13821785  0.69698217  0.21589379     0.07800
H146        H  0.14925375  0.76988090  0.22875029     0.11300
H147        H  0.09349309  0.75748400  0.02091396     0.11600
H148        H  0.08252342  0.68591497  0.00756004     0.07900
C149        C  0.10271305  0.61345670  0.96553948    -0.11200
C150        C  0.08311137  0.57589071  0.96097834    -0.10500
C151        C  0.05778873  0.56856061  0.25890823    -0.01400
C152        C  0.05493692  0.59765856  0.22630973    -0.11600
C153        C  0.07450853  0.63529002  0.23085617    -0.10000
H154        H  0.12037338  0.61953944  0.99423508     0.07900
H155        H  0.08561433  0.55350674  0.98627814     0.11600
H156        H  0.03578227  0.59205080  0.19857311     0.11300
H157        H  0.06960374  0.65853156  0.20682822     0.07900
C158        C  0.95107342  0.36529960  0.99217324    -0.11200
C159        C  0.92521890  0.34707132  0.29492998     0.05900
C160        C  0.91404979  0.36965786  0.25845951    -0.10000
C161        C  0.93007776  0.40879277  0.25173235    -0.11600
C162        C  0.95767822  0.42579696  0.28120581    -0.01400
C163        C  0.96704038  0.40434937  0.98540954    -0.10500
C164        C  0.91197296  0.30387389  0.29962310     0.05900
H165        H  0.89462133  0.35628362  0.23406121     0.07800
H166        H  0.92302305  0.42471927  0.22229269     0.11300
H167        H  0.98844954  0.41705740  0.00840840     0.11600
H168        H  0.95976995  0.34894461  0.02084896     0.07900
C169        C  0.94000449  0.27397588  0.31354007    -0.11200
C170        C  0.92880720  0.23278106  0.31415270    -0.10500
C171        C  0.88878732  0.22034618  0.30220531    -0.01400
C172        C  0.86050661  0.25067820  0.28918174    -0.11600
C173        C  0.87202550  0.29178275  0.28788786    -0.10000
H174        H  0.97113659  0.28226052  0.32262462     0.07900
H175        H  0.95172668  0.21043632  0.32345281     0.11600
H176        H  0.82987618  0.24332710  0.27830160     0.11300
H177        H  0.84967924  0.31415866  0.27723398     0.07900
C178        C  0.89081467  0.71176301  0.26158698    -0.11200
C179        C  0.92788354  0.70105510  0.28171238     0.05900
C180        C  0.94867872  0.73057362  0.30638852    -0.10000
C181        C  0.93217500  0.76996563  0.31114581    -0.11600
C182        C  0.89458089  0.78019163  0.29157722    -0.01400
C183        C  0.87450664  0.75082182  0.26623896    -0.10500
C184        C  0.94363093  0.65874371  0.27750535     0.05900
H185        H  0.97756555  0.72318385  0.32192237     0.07800
H186        H  0.94828748  0.79203717  0.33087225     0.11300
H187        H  0.84605271  0.75795792  0.24980023     0.11600
H188        H  0.87384129  0.68959412  0.24277280     0.07900
C189        C  0.94121077  0.63813382  0.23798546    -0.11200
C190        C  0.95350623  0.59739478  0.23443737    -0.10500
C191        C  0.96889694  0.57685562  0.27018020    -0.01400
C192        C  0.97156707  0.59719036  0.30961246    -0.11600
C193        C  0.95896454  0.63787374  0.31330461    -0.10000
H194        H  0.93016008  0.65367485  0.20971200     0.07900
H195        H  0.95234851  0.58229331  0.87022015     0.11600
H196        H  0.98417440  0.58173153  0.33724970     0.11300
H197        H  0.96073215  0.65283654  0.34420135     0.07900
C198        C  0.35847608  0.06336371  0.23417292    -0.11200
C199        C  0.34494118  0.06824654  0.27673676     0.05900
C200        C  0.37375523  0.06433681  0.31003869    -0.10000
C201        C  0.41455445  0.05323297  0.30106762    -0.11600
C202        C  0.42703760  0.04564432  0.25878249    -0.01400
C203        C  0.39921204  0.05201121  0.89197641    -0.10500
C204        C  0.30082192  0.07677903  0.28618806     0.05900
H205        H  0.36428885  0.06764961  0.34314864     0.07800
H206        H  0.43550955  0.04737351  0.32728701     0.11300
H207        H  0.40827706  0.04546373  0.85923942     0.11600
H208        H  0.33728299  0.06716720  0.20778043     0.07900
C209        C  0.28975865  0.10450791  0.31867090    -0.11200
C210        C  0.24852249  0.11557470  0.32467872    -0.10500
C211        C  0.21760002  0.09899359  0.29850830    -0.01400
C212        C  0.22807568  0.06923979  0.26803653    -0.11600
C213        C  0.26943231  0.05832470  0.26179947    -0.10000
H214        H  0.31309383  0.11924647  0.00468510     0.07900
H215        H  0.24090518  0.13840930  0.01532523     0.11600
H216        H  0.20466614  0.05623746  0.24743283     0.11300
H217        H  0.27697065  0.03624657  0.23709633     0.07900
C218        C  0.26382482  0.93763835  0.26523096    -0.11200
C219        C  0.29703463  0.91864509  0.28613966     0.05900
C220        C  0.28904228  0.88658443  0.31467392    -0.10000
C221        C  0.24878492  0.87243726  0.32049930    -0.11600
C222        C  0.21583104  0.89031924  0.29814603    -0.01400
C223        C  0.22346625  0.92382385  0.27148616    -0.10500
C224        C  0.33998760  0.93146552  0.27727694     0.05900
H225        H  0.31409093  0.87146154  0.33119657     0.07800
H226        H  0.24351480  0.84683362  0.34170001     0.11300
H227        H  0.19861574  0.93796234  0.25378642     0.11600
H228        H  0.26921225  0.96270028  0.24341783     0.07900
C229        C  0.35321449  0.93814576  0.23496555    -0.11200
C230        C  0.39344500  0.95133036  0.22660923    -0.10500
C231        C  0.42086026  0.95809469  0.26042186    -0.01400
C232        C  0.40817236  0.95048648  0.96926005    -0.11600
C233        C  0.36800345  0.93716862  0.97765008    -0.10000
H234        H  0.33234908  0.93338905  0.20843128     0.07900
H235        H  0.40284294  0.95748280  0.19395452     0.11600
H236        H  0.42893582  0.95627147  0.99567254     0.11300
H237        H  0.35844076  0.93249514  0.01052711     0.07900
C238        C  0.64033796  0.92431391  0.22965048    -0.11200
C239        C  0.64677934  0.90495610  0.26916018     0.05900
C240        C  0.61470273  0.90428050  0.96619275    -0.10000
C241        C  0.57767279  0.92458609  0.95813613    -0.11600
C242        C  0.57227197  0.94583430  0.25300319    -0.01400
C243        C  0.60319942  0.94445456  0.22155731    -0.10500
C244        C  0.68831687  0.88978138  0.28023370     0.05900
H245        H  0.61883873  0.88922886  0.99669863     0.07800
H246        H  0.55391693  0.92529162  0.98266185     0.11300
H247        H  0.59914695  0.96019605  0.19143487     0.11600
H248        H  0.66475660  0.92564844  0.20588984     0.07900
C249        C  0.71220787  0.86848318  0.25002447    -0.11200
C250        C  0.75381395  0.86063486  0.25791662    -0.10500
C251        C  0.77263755  0.87449652  0.29585650    -0.01400
C252        C  0.74760267  0.89284335  0.32751310    -0.11600
C253        C  0.70593196  0.90048603  0.31964626    -0.10000
H254        H  0.69905596  0.85920571  0.21969640     0.07900
H255        H  0.77196497  0.84541500  0.23340548     0.11600
H256        H  0.75966184  0.90266417  0.35791925     0.11300
H257        H  0.68805746  0.91688040  0.01025700     0.07900
C258        C  0.72066423  0.10872495  0.24320322    -0.11200
C259        C  0.70554582  0.07450784  0.26506861     0.05900
C260        C  0.73170096  0.05388547  0.29370436    -0.10000
C261        C  0.77178091  0.06811795  0.30142729    -0.11600
C262        C  0.78605646  0.10359779  0.28120283    -0.01400
C263        C  0.76044723  0.12320611  0.25129036    -0.10500
C264        C  0.66202902  0.06151371  0.25954497     0.05900
H265        H  0.72090074  0.02701536  0.97713723     0.07800
H266        H  0.79097936  0.05230342  0.32436397     0.11300
H267        H  0.77105980  0.15005584  0.23439586     0.11600
H268        H  0.70119268  0.12509462  0.22091299     0.07900
C269        C  0.63735732  0.05362417  0.29564495    -0.11200
C270        C  0.59661816  0.04046683  0.29094015    -0.10500
C271        C  0.57984599  0.03489591  0.25008519    -0.01400
C272        C  0.60379084  0.04407921  0.21385628    -0.11600
C273        C  0.64469230  0.05731154  0.21854264    -0.10000
H274        H  0.64974103  0.05741115  0.32757010     0.07900
H275        H  0.57850383  0.03340638  0.31913346     0.11600
H276        H  0.59131506  0.03957044  0.18207971     0.11300
H277        H  0.66309942  0.06318841  0.19025629     0.07900
C278        C  0.53904741  0.01507196  0.57928099     0.01900
C279        C  0.53557481  0.97197921  0.24768604     0.01800
C280        C  0.49656850  0.95380835  0.25025671    -0.18700
C281        C  0.46103950  0.97783115  0.25241753     0.01900
C282        C  0.46427010  0.02077229  0.58447714     0.01800
C283        C  0.50316318  0.03920257  0.58067326    -0.18700
H284        H  0.50564256  0.07221115  0.58131792     0.03900
H285        H  0.49398981  0.92087141  0.25274481     0.03900
C286        C  0.81928543  0.87061243  0.63300269     0.86100
C287        C  0.84037779  0.88863527  0.67281034    -0.54200
C288        C  0.88231073  0.88406159  0.67279468     0.09000
C289        C  0.89965797  0.86147163  0.63334179     0.20000
C290        C  0.84156659  0.89156071  0.59559976    -0.54900
C291        C  0.88343495  0.88684577  0.59572677     0.09100
C292        C  0.83353174  0.82613977  0.63141197    -0.54400
C293        C  0.87543467  0.82099944  0.63088220     0.09700
H294        H  0.82479823  0.90541442  0.69804666     0.14200
H295        H  0.93380654  0.85810163  0.63323840    -0.00100
H296        H  0.82549939  0.90924732  0.57141800     0.14500
H297        H  0.81187973  0.80084378  0.63017260     0.14300
C298        C  0.90984647  0.90754238  0.56422524     0.42100
N299        N  0.92678554  0.94796270  0.51356651     0.00900
C300        C  0.10209083  0.94231457  0.38581790    -0.06900
H301        H  0.13190508  0.96162967  0.54809670     0.06400
C302        C  0.05117853  0.09689187  0.53944690    -0.07300
Co303      Co  0.00188952  0.91996809  0.46600265     0.74200
N304        N  0.07679944  0.95173001  0.51046539    -0.26500
Co305      Co  0.07605069  0.99654735  0.46300813     0.74100
C306        C  0.08943392  0.08380724  0.55950540     0.42200
N307        N  0.95342829  0.06784184  0.51125868     0.00600
N308        N  0.07473823  0.04233369  0.50908055     0.00700
N309        N  0.05390530  0.89230251  0.39006695    -0.47300
H310        H  0.96626519  0.86602464  0.55187269     0.06400
N311        N  0.04833355  0.92288076  0.51114813     0.00900
N312        N  0.07294931  0.04155262  0.41534121     0.00700
C313        C  0.08612427  0.08359443  0.69804047     0.42300
N314        N  0.92514648  0.03892906  0.51305998    -0.25900
C315        C  0.94719910  0.89133809  0.38945550    -0.06800
N316        N  0.89806849  0.94121473  0.54283615    -0.47000
N317        N  0.10035317  0.04976519  0.38472975    -0.47200
C318        C  0.90798418  0.90471002  0.70482728     0.42100
N319        N  0.04721669  0.92119691  0.41886021     0.00900
N320        N  0.92237035  0.03753761  0.41961989    -0.25900
N321        N  0.95636333  0.92014597  0.51364586    -0.26400
N322        N  0.95067009  0.06648251  0.41888167     0.00600
H323        H  0.86583135  0.02861948  0.71727714     0.06500
H324        H  0.02866420  0.12231626  0.71357862     0.06500
N325        N  0.07525214  0.95042420  0.41748625    -0.26500
N326        N  0.04456591  0.06947186  0.50871822    -0.26100
N327        N  0.92524715  0.94628698  0.42113436     0.00900
C328        C  0.08964197  0.90644094  0.56128569     0.42300
C329        C  0.89953562  0.04721307  0.54590729    -0.07300
N330        N  0.04240443  0.06831102  0.41642737    -0.26100
H331        H  0.03216434  0.12343729  0.54600407     0.06500
N332        N  0.05519099  0.89497568  0.54060435    -0.47300
H333        H  0.87243326  0.02978901  0.55467686     0.06500
C334        C  0.90747661  0.08421324  0.70400897     0.42200
C335        C  0.94857137  0.89332439  0.54514327    -0.06800
Co336      Co  0.92408410  0.99259941  0.46682813     0.73800
N337        N  0.94828252  0.09650285  0.54064226    -0.47000
C338        C  0.08774299  0.90382329  0.70135243     0.42400
N339        N  0.89611731  0.93870859  0.39272445    -0.47000
Co340      Co  0.99776302  0.06853978  0.46372581     0.73900
C341        C  0.04797134  0.09583046  0.38569258    -0.07400
C342        C  0.10423251  0.94421032  0.54168948    -0.11100
N343        N  0.95513921  0.91876740  0.42039943    -0.26400
N344        N  0.10275243  0.04988836  0.53900269    -0.47200
H345        H  0.12939506  0.95989295  0.71143488     0.06400
C346        C  0.89384265  0.04576771  0.38959513    -0.07300
Cl347      Cl  0.99992848  0.99438122  0.46479642    -0.50300
C348        C  0.91517470  0.08540547  0.56392499     0.42200
H349        H  0.96530921  0.86434631  0.71560426     0.06400
N350        N  0.94264580  0.09518818  0.39052623    -0.47000
C351        C  0.87877615  0.17473145  0.63428434     0.86100
C352        C  0.89144367  0.15216334  0.67506260    -0.54200
C353        C  0.88616504  0.11083654  0.67328484     0.09000
C354        C  0.86660723  0.09562951  0.63133918     0.20000
C355        C  0.90260844  0.15274886  0.59834362    -0.54900
C356        C  0.89595521  0.11156891  0.59662975     0.09100
C357        C  0.83336456  0.16235976  0.62743341    -0.54400
C358        C  0.82701577  0.12113443  0.62522790     0.09700
H359        H  0.90636162  0.16724947  0.70188624     0.14200
H360        H  0.86194327  0.06204871  0.62999039    -0.00100
H361        H  0.92268698  0.16858517  0.57593302     0.14500
H362        H  0.80788130  0.18358144  0.62477450     0.14300
C363        C  0.12425329  0.81635831  0.62944405     0.86100
C364        C  0.10325228  0.83702491  0.66815214    -0.54200
C365        C  0.10824937  0.87837182  0.66916487     0.09000
C366        C  0.13360848  0.89565363  0.63180310     0.20000
C367        C  0.10566562  0.83878532  0.59106098    -0.54900
C368        C  0.11050211  0.88010706  0.59226868     0.09100
C369        C  0.16932808  0.83012077  0.63134390    -0.54400
C370        C  0.17443456  0.87146999  0.63254894     0.09700
H371        H  0.08458508  0.82161217  0.69191229     0.14200
H372        H  0.13717779  0.92938678  0.63283888    -0.00100
H373        H  0.08881188  0.82330316  0.56575037     0.14500
H374        H  0.19506686  0.80878312  0.63039593     0.14300
C375        C  0.12505704  0.17169533  0.62896082     0.86100
C376        C  0.10892634  0.14981553  0.58924991    -0.54200
C377        C  0.11308749  0.10856674  0.58990193     0.09000
C378        C  0.13526578  0.09232617  0.62985271     0.20000
C379        C  0.10390458  0.15042293  0.66666262    -0.54900
C380        C  0.10891503  0.10895405  0.66716623     0.09100
C381        C  0.17039804  0.15846478  0.63191836    -0.54400
C382        C  0.17583589  0.11701852  0.63229405     0.09700
H383        H  0.09301936  0.16574611  0.56365676     0.14200
H384        H  0.13921803  0.05860678  0.63010831    -0.00100
H385        H  0.08543065  0.16686016  0.69020075     0.14500
H386        H  0.19643692  0.17917378  0.63237979     0.14300
C387        C  0.98775783  0.53621843  0.26505812     0.01900
C388        C  0.03084377  0.53250206  0.25885989     0.01800
C389        C  0.04901997  0.49401876  0.25701396    -0.18700
C390        C  0.02509810  0.45901531  0.26217748     0.01900
C391        C  0.98209769  0.46238784  0.26987707     0.01800
C392        C  0.96348945  0.50108901  0.27009943    -0.18700
H393        H  0.93063828  0.50399121  0.27641132     0.03900
H394        H  0.08218355  0.49133543  0.25248562     0.03900
C395        C  0.04895993  0.34901096  0.57118871    -0.11200
C396        C  0.07826586  0.34035857  0.60292339     0.05900
C397        C  0.09296247  0.37187395  0.29587981    -0.10000
C398        C  0.07683226  0.41111921  0.29213040    -0.11600
C399        C  0.04602295  0.41918613  0.59527965    -0.01400
C400        C  0.03317202  0.38835521  0.56716036    -0.10500
C401        C  0.09108668  0.29803403  0.61080741     0.05900
H402        H  0.11533381  0.36569176  0.32071803     0.07800
H403        H  0.08693359  0.43473452  0.31407793     0.11300
H404        H  0.00989111  0.39446262  0.54321846     0.11600
H405        H  0.03766860  0.32513769  0.55021416     0.07900
C406        C  0.06111672  0.26742897  0.61353071    -0.11200
C407        C  0.07264603  0.22742819  0.62191127    -0.10500
C408        C  0.11458963  0.21674747  0.62647972    -0.01400
C409        C  0.14455363  0.24782886  0.62475383    -0.11600
C410        C  0.13279113  0.28818389  0.61715074    -0.10000
H411        H  0.02870823  0.27448844  0.60917964     0.07900
H412        H  0.04878852  0.20427075  0.62321693     0.11600
H413        H  0.17711433  0.24158222  0.29495269     0.11300
H414        H  0.15630507  0.31155754  0.28195207     0.07900
C415        C  0.09765415  0.70395406  0.64982798    -0.11200
C416        C  0.10934438  0.68624388  0.61070032     0.05900
C417        C  0.12866613  0.71023329  0.57954042    -0.10000
C418        C  0.13476059  0.75178875  0.58688013    -0.11600
C419        C  0.12056240  0.77037519  0.62496872    -0.01400
C420        C  0.10323828  0.74553809  0.65699724    -0.10500
C421        C  0.09717221  0.64394793  0.60134724     0.05900
H422        H  0.13820159  0.69698442  0.54923088     0.07800
H423        H  0.14923890  0.76988330  0.56208351     0.11300
H424        H  0.09348722  0.75749277  0.35425983     0.11600
H425        H  0.08251701  0.68592345  0.34091266     0.07900
C426        C  0.10271045  0.61346035  0.29890475    -0.11200
C427        C  0.08310902  0.57589421  0.29434476    -0.10500
C428        C  0.05778428  0.56856153  0.59225673    -0.01400
C429        C  0.05493104  0.59765777  0.55965672    -0.11600
C430        C  0.07450054  0.63529036  0.56420127    -0.10000
H431        H  0.12036642  0.61954595  0.32760262     0.07900
H432        H  0.08560780  0.55351277  0.31964743     0.11600
H433        H  0.03577644  0.59204792  0.53192054     0.11300
H434        H  0.06959429  0.65853051  0.54017215     0.07900
C435        C  0.95108344  0.36528966  0.32551488    -0.11200
C436        C  0.92521137  0.34707286  0.62827018     0.05900
C437        C  0.91404565  0.36965933  0.59179858    -0.10000
C438        C  0.93007383  0.40879445  0.58507340    -0.11600
C439        C  0.95767096  0.42579881  0.61455013    -0.01400
C440        C  0.96705138  0.40433974  0.31875597    -0.10500
C441        C  0.91196605  0.30387527  0.63296133     0.05900
H442        H  0.89461996  0.35628482  0.56739808     0.07800
H443        H  0.92302224  0.42472086  0.55563293     0.11300
H444        H  0.98846341  0.41704334  0.34175439     0.11600
H445        H  0.95978236  0.34892999  0.35418697     0.07900
C446        C  0.93999754  0.27397752  0.64687879    -0.11200
C447        C  0.92880112  0.23278252  0.64748967    -0.10500
C448        C  0.88878198  0.22034729  0.63554005    -0.01400
C449        C  0.86050129  0.25067909  0.62251598    -0.11600
C450        C  0.87201941  0.29178384  0.62122369    -0.10000
H451        H  0.97112921  0.28226268  0.65596515     0.07900
H452        H  0.95172053  0.21043805  0.65679020     0.11600
H453        H  0.82987121  0.24332764  0.61163416     0.11300
H454        H  0.84967342  0.31415960  0.61056926     0.07900
C455        C  0.89081590  0.71176683  0.59491728    -0.11200
C456        C  0.92788530  0.70105941  0.61504193     0.05900
C457        C  0.94868118  0.73057861  0.63971668    -0.10000
C458        C  0.93217679  0.76997018  0.64447459    -0.11600
C459        C  0.89458173  0.78019532  0.62490764    -0.01400
C460        C  0.87450748  0.75082538  0.59956951    -0.10500
C461        C  0.94363116  0.65874719  0.61083821     0.05900
H462        H  0.97756836  0.72318955  0.65524962     0.07800
H463        H  0.94828948  0.79204204  0.66420074     0.11300
H464        H  0.84605308  0.75796091  0.58313167     0.11600
H465        H  0.87384171  0.68959754  0.57610426     0.07900
C466        C  0.94120512  0.63813206  0.57132163    -0.11200
C467        C  0.95349801  0.59739191  0.56777813    -0.10500
C468        C  0.96889231  0.57685707  0.60352199    -0.01400
C469        C  0.97156851  0.59719711  0.64295075    -0.11600
C470        C  0.95896835  0.63788137  0.64663845    -0.10000
H471        H  0.93015195  0.65366964  0.54304728     0.07900
H472        H  0.95235601  0.58229006  0.20358141     0.11600
H473        H  0.98417896  0.58174172  0.67058845     0.11300
H474        H  0.96074046  0.65284802  0.67753292     0.07900
C475        C  0.35847443  0.06336218  0.56749658    -0.11200
C476        C  0.34493990  0.06824223  0.61006092     0.05900
C477        C  0.37375359  0.06432704  0.64336245    -0.10000
C478        C  0.41455217  0.05322175  0.63439022    -0.11600
C479        C  0.42703516  0.04563707  0.59210425    -0.01400
C480        C  0.39921126  0.05200907  0.22529441    -0.10500
C481        C  0.30082135  0.07677753  0.61951323     0.05900
H482        H  0.36428735  0.06763730  0.67647271     0.07800
H483        H  0.43550700  0.04735884  0.66060897     0.11300
H484        H  0.40827454  0.04546333  0.19255639     0.11600
H485        H  0.33728155  0.06716949  0.54110457     0.07900
C486        C  0.28976042  0.10450509  0.65199820    -0.11200
C487        C  0.24852494  0.11557366  0.65800822    -0.10500
C488        C  0.21760071  0.09899526  0.63183812    -0.01400
C489        C  0.22807420  0.06924353  0.60136336    -0.11600
C490        C  0.26943010  0.05832689  0.59512387    -0.10000
H491        H  0.31309642  0.11923344  0.33801433     0.07900
H492        H  0.24090812  0.13839657  0.34865745     0.11600
H493        H  0.20466318  0.05624357  0.58075943     0.11300
H494        H  0.27696652  0.03625021  0.57041890     0.07900
C495        C  0.26382449  0.93763857  0.59856128    -0.11200
C496        C  0.29703515  0.91864095  0.61946434     0.05900
C497        C  0.28904335  0.88657811  0.64799601    -0.10000
C498        C  0.24878558  0.87243312  0.65382422    -0.11600
C499        C  0.21583052  0.89031917  0.63147621    -0.01400
C500        C  0.22346546  0.92382600  0.60481915    -0.10500
C501        C  0.33998830  0.93145955  0.61059902     0.05900
H502        H  0.31409262  0.87145203  0.66451454     0.07800
H503        H  0.24351601  0.84682795  0.67502309     0.11300
H504        H  0.19861422  0.93796789  0.58712353     0.11600
H505        H  0.26921155  0.96270241  0.57675060     0.07900
C506        C  0.35321256  0.93814209  0.56828715    -0.11200
C507        C  0.39344306  0.95132600  0.55992883    -0.10500
C508        C  0.42086092  0.95808722  0.59373995    -0.01400
C509        C  0.40817765  0.95048465  0.30257551    -0.11600
C510        C  0.36800918  0.93716755  0.31096910    -0.10000
H511        H  0.33234499  0.93338821  0.54175418     0.07900
H512        H  0.40283881  0.95748079  0.52727391     0.11600
H513        H  0.42894314  0.95626990  0.32898624     0.11300
H514        H  0.35844900  0.93249512  0.34384706     0.07900
C515        C  0.64033960  0.92431156  0.56297754    -0.11200
C516        C  0.64677851  0.90495317  0.60248739     0.05900
C517        C  0.61470398  0.90428561  0.29951446    -0.10000
C518        C  0.57767397  0.92458964  0.29145393    -0.11600
C519        C  0.57227299  0.94583332  0.58632654    -0.01400
C520        C  0.60320208  0.94445329  0.55488246    -0.10500
C521        C  0.68831516  0.88977726  0.61356275     0.05900
H522        H  0.61883960  0.88923843  0.33002289     0.07800
H523        H  0.55391771  0.92529852  0.31597912     0.11300
H524        H  0.59915143  0.96019480  0.52475980     0.11600
H525        H  0.66475950  0.92564557  0.53921802     0.07900
C526        C  0.71220751  0.86848027  0.58335372    -0.11200
C527        C  0.75381370  0.86063350  0.59124670    -0.10500
C528        C  0.77263594  0.87449544  0.62918719    -0.01400
C529        C  0.74759959  0.89283977  0.66084407    -0.11600
C530        C  0.70592873  0.90048089  0.65297635    -0.10000
H531        H  0.69905681  0.85920325  0.55302508     0.07900
H532        H  0.77196594  0.84541493  0.56673549     0.11600
H533        H  0.75965767  0.90265984  0.69125065     0.11300
H534        H  0.68805857  0.91689392  0.34357751     0.07900
C535        C  0.72066454  0.10872433  0.57652549    -0.11200
C536        C  0.70554321  0.07450986  0.59839345     0.05900
C537        C  0.73169609  0.05388884  0.62703258    -0.10000
C538        C  0.77177618  0.06812031  0.63475669    -0.11600
C539        C  0.78605429  0.10359789  0.61453002    -0.01400
C540        C  0.76044776  0.12320455  0.58461388    -0.10500
C541        C  0.66202603  0.06151657  0.59286865     0.05900
H542        H  0.72089548  0.02702007  0.31047204     0.07800
H543        H  0.79097265  0.05230709  0.65769612     0.11300
H544        H  0.77106255  0.15005270  0.56771786     0.11600
H545        H  0.70119513  0.12509288  0.55423253     0.07900
C546        C  0.63735337  0.05362688  0.62896798    -0.11200
C547        C  0.59661480  0.04046792  0.62426223    -0.10500
C548        C  0.57984393  0.03489558  0.58340689    -0.01400
C549        C  0.60378939  0.04407970  0.54717859    -0.11600
C550        C  0.64469029  0.05731366  0.55186591    -0.10000
H551        H  0.64973607  0.05741453  0.66089352     0.07900
H552        H  0.57850008  0.03340713  0.65245511     0.11600
H553        H  0.59131463  0.03957013  0.51540167     0.11300
H554        H  0.66309791  0.06319060  0.52357993     0.07900
C555        C  0.53904683  0.01507635  0.91264841     0.01900
C556        C  0.53557527  0.97197683  0.58100643     0.01800
C557        C  0.49656958  0.95380418  0.58357487    -0.18700
C558        C  0.46103938  0.97782534  0.58573493     0.01900
C559        C  0.46427035  0.02078023  0.91784558     0.01800
C560        C  0.50316400  0.03920871  0.91404039    -0.18700
H561        H  0.50564484  0.07221721  0.91468240     0.03900
H562        H  0.49399230  0.92086723  0.58606269     0.03900
C563        C  0.81928617  0.87061033  0.96633780     0.86100
C564        C  0.84038028  0.88862983  0.00614593    -0.54200
C565        C  0.88231309  0.88405600  0.00612804     0.09000
C566        C  0.89965864  0.86146881  0.96667263     0.20000
C567        C  0.84156595  0.89156146  0.92893573    -0.54900
C568        C  0.88343424  0.88684606  0.92906043     0.09100
C569        C  0.83353201  0.82613763  0.96474246    -0.54400
C570        C  0.87543490  0.82099693  0.96421056     0.09700
H571        H  0.82480199  0.90540802  0.03138388     0.14200
H572        H  0.93380716  0.85809853  0.96656759    -0.00100
H573        H  0.82549790  0.90924997  0.90475609     0.14500
H574        H  0.81187970  0.80084187  0.96350154     0.14300
C575        C  0.90984460  0.90754383  0.89755869     0.42100
N576        N  0.92678250  0.94796525  0.84690040     0.00900
C577        C  0.10208978  0.94231874  0.71915423    -0.06900
H578        H  0.13190239  0.96163004  0.88143054     0.06400
C579        C  0.05117614  0.09689729  0.87277915    -0.07300
Co580      Co  0.00188649  0.91997141  0.79933591     0.74200
N581        N  0.07679570  0.95173282  0.84380029    -0.26500
Co582      Co  0.07604758  0.99655057  0.79634359     0.74100
C583        C  0.08943145  0.08381273  0.89283814     0.42200
N584        N  0.95342449  0.06784573  0.84459104     0.00600
N585        N  0.07473439  0.04233714  0.84241558     0.00700
N586        N  0.05390362  0.89230708  0.72340083    -0.47300
H587        H  0.96626354  0.86602672  0.88520458     0.06400
N588        N  0.04832993  0.92288346  0.84448185     0.00900
N589        N  0.07294740  0.04155522  0.74867652     0.00700
C590        C  0.08612296  0.08359051  0.03137240     0.42300
N591        N  0.92514291  0.03893270  0.84639312    -0.25900
C592        C  0.94719653  0.89134172  0.72278807    -0.06800
N593        N  0.89806591  0.94121650  0.87617038    -0.47000
N594        N  0.10035235  0.04976712  0.71806594    -0.47200
C595        C  0.90798744  0.90470437  0.03815976     0.42100
N596        N  0.04721421  0.92120109  0.75219419     0.00900
N597        N  0.92236713  0.03753978  0.75295311    -0.25900
N598        N  0.95636041  0.92014862  0.84697886    -0.26400
N599        N  0.95066700  0.06648457  0.75221400     0.00600
H600        H  0.86583406  0.02861827  0.05060962     0.06500
H601        H  0.02866304  0.12231060  0.04691490     0.06500
N602        N  0.07525003  0.95042806  0.75082165    -0.26500
N603        N  0.04456262  0.06947594  0.84205188    -0.26100
N604        N  0.92524372  0.94628973  0.75446795     0.00900
C605        C  0.08963913  0.90644109  0.89461773     0.42300
C606        C  0.89953210  0.04721732  0.87924038    -0.07300
N607        N  0.04240222  0.06831332  0.74976088    -0.26100
H608        H  0.03216255  0.12344355  0.87933502     0.06500
N609        N  0.05518793  0.89497682  0.87393627    -0.47300
H610        H  0.87242993  0.02979320  0.88801062     0.06500
C611        C  0.90748088  0.08421199  0.03734453     0.42200
C612        C  0.94856918  0.89332652  0.87847584    -0.06800
Co613      Co  0.92408073  0.99260221  0.80016182     0.73800
N614        N  0.94827874  0.09650725  0.87397408    -0.47000
C615        C  0.08774466  0.90381172  0.03468448     0.42400
N616        N  0.89611384  0.93871122  0.72605802    -0.47000
Co617      Co  0.99775986  0.06854292  0.79705867     0.73900
C618        C  0.04797006  0.09583191  0.71902543    -0.07400
C619        C  0.10422929  0.94421158  0.87502349    -0.11100
N620        N  0.95513632  0.91877075  0.75373239    -0.26400
N621        N  0.10274884  0.04989247  0.87233726    -0.47200
H622        H  0.12939644  0.95988248  0.04476338     0.06400
C623        C  0.89383926  0.04576911  0.72292831    -0.07300
Cl624      Cl  0.99992527  0.99438438  0.79813041    -0.50300
C625        C  0.91517105  0.08541026  0.89725715     0.42200
H626        H  0.96531128  0.86433952  0.04893740     0.06400
N627        N  0.94264246  0.09518957  0.72385784    -0.47000
C628        C  0.87877909  0.17473405  0.96762339     0.86100
C629        C  0.89145129  0.15216425  0.00839928    -0.54200
C630        C  0.88617148  0.11083739  0.00662059     0.09000
C631        C  0.86660965  0.09563216  0.96467632     0.20000
C632        C  0.90260730  0.15275271  0.93167896    -0.54900
C633        C  0.89595391  0.11157282  0.92996425     0.09100
C634        C  0.83336660  0.16236256  0.96077802    -0.54400
C635        C  0.82701760  0.12113729  0.95857084     0.09700
H636        H  0.90637113  0.16724932  0.03522226     0.14200
H637        H  0.86194593  0.06205135  0.96332644    -0.00100
H638        H  0.92268350  0.16858975  0.90926678     0.14500
H639        H  0.80788314  0.18358442  0.95812482     0.14300
C640        C  0.12425410  0.81635243  0.96276523     0.86100
C641        C  0.10325201  0.83701471  0.00147586    -0.54200
C642        C  0.10824813  0.87836199  0.00249306     0.09000
C643        C  0.13360652  0.89564787  0.96513311     0.20000
C644        C  0.10566585  0.83878285  0.92438466    -0.54900
C645        C  0.11050087  0.88010459  0.92559705     0.09100
C646        C  0.16932839  0.83011631  0.96466716    -0.54400
C647        C  0.17443308  0.87146555  0.96587714     0.09700
H648        H  0.08458611  0.82159864  0.02523494     0.14200
H649        H  0.13717501  0.92938101  0.96617229    -0.00100
H650        H  0.08881253  0.82330279  0.89907230     0.14500
H651        H  0.19506816  0.80877986  0.96371818     0.14300
C652        C  0.12505138  0.17169810  0.96229925     0.86100
C653        C  0.10892220  0.14982010  0.92258648    -0.54200
C654        C  0.11308488  0.10857139  0.92323576     0.09000
C655        C  0.13526372  0.09232925  0.96318564     0.20000
C656        C  0.10389934  0.15042225  0.99999913    -0.54900
C657        C  0.10891197  0.10895342  0.00049990     0.09100
C658        C  0.17039274  0.15846936  0.96525643    -0.54400
C659        C  0.17583254  0.11702340  0.96562987     0.09700
H660        H  0.09301475  0.16575162  0.89699427     0.14200
H661        H  0.13921749  0.05861001  0.96343910    -0.00100
H662        H  0.08542455  0.16685729  0.02353828     0.14500
H663        H  0.19643052  0.17917939  0.96572009     0.14300
C664        C  0.98775306  0.53621959  0.59840337     0.01900
C665        C  0.03083965  0.53250282  0.59221057     0.01800
C666        C  0.04901588  0.49401958  0.59036874    -0.18700
C667        C  0.02509320  0.45901653  0.59553016     0.01900
C668        C  0.98209189  0.46238938  0.60322402     0.01800
C669        C  0.96348385  0.50109056  0.60344276    -0.18700
H670        H  0.93063173  0.50399315  0.60975034     0.03900
H671        H  0.08218004  0.49133593  0.58584375     0.03900
C672        C  0.04895866  0.34900596  0.90450877    -0.11200
C673        C  0.07826060  0.34035895  0.93624911     0.05900
C674        C  0.09295677  0.37187484  0.62923322    -0.10000
C675        C  0.07682552  0.41111976  0.62548533    -0.11600
C676        C  0.04602161  0.41918600  0.92858367    -0.01400
C677        C  0.03317243  0.38834987  0.90046987    -0.10500
C678        C  0.09108047  0.29803571  0.94414259     0.05900
H679        H  0.11532742  0.36569191  0.65407203     0.07800
H680        H  0.08692534  0.43473437  0.64743447     0.11300
H681        H  0.00989383  0.39445312  0.87652439     0.11600
H682        H  0.03766906  0.32512897  0.88353788     0.07900
C683        C  0.06111064  0.26743040  0.94686484    -0.11200
C684        C  0.07263958  0.22743021  0.95524912    -0.10500
C685        C  0.11458293  0.21675020  0.95982114    -0.01400
C686        C  0.14454638  0.24783238  0.95809954    -0.11600
C687        C  0.13278413  0.28818684  0.95049320    -0.10000
H688        H  0.02870271  0.27448894  0.94250833     0.07900
H689        H  0.04878243  0.20427237  0.95655256     0.11600
H690        H  0.17711401  0.24158525  0.62829465     0.11300
H691        H  0.15630250  0.31156134  0.61529994     0.07900
C692        C  0.09766024  0.70394390  0.98313288    -0.11200
C693        C  0.10934976  0.68623944  0.94400207     0.05900
C694        C  0.12867026  0.71023381  0.91284558    -0.10000
C695        C  0.13476401  0.75178844  0.92019187    -0.11600
C696        C  0.12056550  0.77036945  0.95828341    -0.01400
C697        C  0.10324289  0.74552737  0.99030841    -0.10500
C698        C  0.09717726  0.64394469  0.93464240     0.05900
H699        H  0.13820507  0.69698952  0.88253365     0.07800
H700        H  0.14924147  0.76988688  0.89539772     0.11300
H701        H  0.09348866  0.75749866  0.68760115     0.11600
H702        H  0.08251623  0.68592916  0.67425757     0.07900
C703        C  0.10270424  0.61346501  0.63225060    -0.11200
C704        C  0.08310454  0.57589775  0.62769272    -0.10500
C705        C  0.05778514  0.56856059  0.92554544    -0.01400
C706        C  0.05492894  0.59766176  0.89295042    -0.11600
C707        C  0.07450043  0.63529319  0.89749823    -0.10000
H708        H  0.12036057  0.61955256  0.66094786     0.07900
H709        H  0.08560443  0.55351769  0.65299644     0.11600
H710        H  0.03577077  0.59205656  0.86521584     0.11300
H711        H  0.06959165  0.65853717  0.87347374     0.07900
C712        C  0.95107230  0.36529133  0.65885823    -0.11200
C713        C  0.92521284  0.34707556  0.96158849     0.05900
C714        C  0.91404707  0.36965591  0.92511269    -0.10000
C715        C  0.93007437  0.40879035  0.91838059    -0.11600
C716        C  0.95767067  0.42580044  0.94785454    -0.01400
C717        C  0.96704028  0.40434166  0.65210136    -0.10500
C718        C  0.91196747  0.30387853  0.96628760     0.05900
H719        H  0.89462178  0.35627701  0.90071433     0.07800
H720        H  0.92302255  0.42471178  0.88893714     0.11300
H721        H  0.98844980  0.41704545  0.67510230     0.11600
H722        H  0.95976849  0.34893154  0.68753100     0.07900
C723        C  0.93999877  0.27398284  0.98021053    -0.11200
C724        C  0.92880269  0.23278761  0.98082686    -0.10500
C725        C  0.88878397  0.22035036  0.96887794    -0.01400
C726        C  0.86050329  0.25068036  0.95584901    -0.11600
C727        C  0.87202108  0.29178509  0.95455129    -0.10000
H728        H  0.97112991  0.28226947  0.98929637     0.07900
H729        H  0.95172248  0.21044448  0.99013022     0.11600
H730        H  0.82987437  0.24332726  0.94496629     0.11300
H731        H  0.84967515  0.31415919  0.94389270     0.07900
C732        C  0.89081489  0.71176774  0.92823268    -0.11200
C733        C  0.92788456  0.70105801  0.94835540     0.05900
C734        C  0.94868083  0.73057434  0.97303349    -0.10000
C735        C  0.93217679  0.76996559  0.97779629    -0.11600
C736        C  0.89458141  0.78019307  0.95823125    -0.01400
C737        C  0.87450648  0.75082583  0.93289017    -0.10500
C738        C  0.94363055  0.65874637  0.94414589     0.05900
H739        H  0.97756826  0.72318327  0.98856514     0.07800
H740        H  0.94828994  0.79203525  0.99752455     0.11300
H741        H  0.84605175  0.75796329  0.91645387     0.11600
H742        H  0.87384069  0.68960053  0.90941697     0.07900
C743        C  0.94120737  0.63813722  0.90462575    -0.11200
C744        C  0.95350097  0.59739766  0.90107638    -0.10500
C745        C  0.96889304  0.57685754  0.93681799    -0.01400
C746        C  0.97156580  0.59719151  0.97625041    -0.11600
C747        C  0.95896506  0.63787517  0.97994390    -0.10000
H748        H  0.93015572  0.65367908  0.87635328     0.07900
H749        H  0.95234364  0.58228305  0.53692440     0.11600
H750        H  0.98417386  0.58173183  0.00388671     0.11300
H751        H  0.96073464  0.65283724  0.01084098     0.07900
C752        C  0.35847688  0.06336784  0.90085173    -0.11200
C753        C  0.34493982  0.06825336  0.94341444     0.05900
C754        C  0.37375152  0.06434393  0.97671856    -0.10000
C755        C  0.41455067  0.05323780  0.96775069    -0.11600
C756        C  0.42703599  0.04564701  0.92546670    -0.01400
C757        C  0.39920900  0.05200596  0.55861687    -0.10500
C758        C  0.30082053  0.07678766  0.95286246     0.05900
H759        H  0.36428323  0.06765878  0.00982765     0.07800
H760        H  0.43550406  0.04737872  0.99397179     0.11300
H761        H  0.40827206  0.04546311  0.52587817     0.11600
H762        H  0.33728536  0.06717081  0.87445769     0.07900
C763        C  0.28975645  0.10451936  0.98534221    -0.11200
C764        C  0.24852014  0.11558610  0.99134820    -0.10500
C765        C  0.21759829  0.09900241  0.96517861    -0.01400
C766        C  0.22807498  0.06924669  0.93470935    -0.11600
C767        C  0.26943179  0.05833147  0.92847427    -0.10000
H768        H  0.31309970  0.11922800  0.67134211     0.07900
H769        H  0.24091243  0.13839417  0.68198880     0.11600
H770        H  0.20466595  0.05624235  0.91410618     0.11300
H771        H  0.27697096  0.03625147  0.90377334     0.07900
C772        C  0.26382261  0.93764134  0.93190641    -0.11200
C773        C  0.29703141  0.91864554  0.95281423     0.05900
C774        C  0.28903809  0.88658085  0.98134312    -0.10000
C775        C  0.24878066  0.87243227  0.98716364    -0.11600
C776        C  0.21582780  0.89031685  0.96481108    -0.01400
C777        C  0.22346385  0.92382549  0.93815699    -0.10500
C778        C  0.33998458  0.93146699  0.94395546     0.05900
H779        H  0.31408595  0.87145625  0.99786491     0.07800
H780        H  0.24350967  0.84682546  0.00836039     0.11300
H781        H  0.19861423  0.93796615  0.92045822     0.11600
H782        H  0.26921116  0.96270640  0.91009723     0.07900
C783        C  0.35321444  0.93814804  0.90164527    -0.11200
C784        C  0.39344547  0.95133300  0.89329251    -0.10500
C785        C  0.42085803  0.95809719  0.92710753    -0.01400
C786        C  0.40818105  0.95047406  0.63589384    -0.11600
C787        C  0.36801265  0.93715779  0.64428941    -0.10000
H788        H  0.33235106  0.93339161  0.87510941     0.07900
H789        H  0.40284592  0.95748585  0.86063857     0.11600
H790        H  0.42894845  0.95625694  0.66230351     0.11300
H791        H  0.35845463  0.93248343  0.67716765     0.07900
C792        C  0.64033567  0.92431874  0.89633151    -0.11200
C793        C  0.64677749  0.90495505  0.93583790     0.05900
C794        C  0.61470182  0.90428375  0.63284016    -0.10000
C795        C  0.57767279  0.92458879  0.62477771    -0.11600
C796        C  0.57227034  0.94583624  0.91968879    -0.01400
C797        C  0.60319726  0.94446080  0.88824215    -0.10500
C798        C  0.68831512  0.88977858  0.94690802     0.05900
H799        H  0.61883550  0.88923639  0.66334875     0.07800
H800        H  0.55391519  0.92529802  0.64930162     0.11300
H801        H  0.59914440  0.96020642  0.85812230     0.11600
H802        H  0.66475398  0.92565660  0.87257057     0.07900
C803        C  0.71220582  0.86848586  0.91669429    -0.11200
C804        C  0.75381237  0.86063776  0.92458375    -0.10500
C805        C  0.77263662  0.87449443  0.96252522    -0.01400
C806        C  0.74760202  0.89283465  0.99418623    -0.11600
C807        C  0.70593083  0.90047707  0.98632205    -0.10000
H808        H  0.69905344  0.85921294  0.88636515     0.07900
H809        H  0.77196324  0.84542230  0.90006933     0.11600
H810        H  0.75966153  0.90265008  0.02459380     0.11300
H811        H  0.68805407  0.91688758  0.67690782     0.07900
C812        C  0.72066014  0.10873076  0.90988226    -0.11200
C813        C  0.70554505  0.07450979  0.93174347     0.05900
C814        C  0.73170359  0.05388390  0.96037312    -0.10000
C815        C  0.77178328  0.06811710  0.96809535    -0.11600
C816        C  0.78605539  0.10360089  0.94787594    -0.01400
C817        C  0.76044312  0.12321237  0.91796847    -0.10500
C818        C  0.66202786  0.06151584  0.92622348     0.05900
H819        H  0.72088867  0.02702521  0.64380213     0.07800
H820        H  0.79098404  0.05229995  0.99102780     0.11300
H821        H  0.77105315  0.15006502  0.90107734     0.11600
H822        H  0.70118609  0.12510306  0.88759671     0.07900
C823        C  0.63736179  0.05361836  0.96232560    -0.11200
C824        C  0.59662239  0.04046095  0.95762450    -0.10500
C825        C  0.57984421  0.03489816  0.91677108    -0.01400
C826        C  0.60378320  0.04408957  0.88054038    -0.11600
C827        C  0.64468507  0.05732184  0.88522303    -0.10000
H828        H  0.64975016  0.05739919  0.99424966     0.07900
H829        H  0.57851257  0.03339427  0.98581908     0.11600
H830        H  0.59130267  0.03958685  0.84876477     0.11300
H831        H  0.66308775  0.06320492  0.85693504     0.07900
loop_ 
_geom_bond_atom_site_label_1 
_geom_bond_atom_site_label_2 
_geom_bond_distance 
_geom_bond_site_symmetry_2 
_ccdc_geom_bond_type 
C1            C6   1.403       .  A
C1          C279   1.417   1_545  A
C1          C271   1.478       .  S
C2            C3   1.398       .  A
C2          C555   1.417   1_565  A
C2          C796   1.473       .  S
C3            C4   1.393       .  A
C3            H8   1.085       .  S
C4          C559   1.411   1_565  A
C4          C785   1.474       .  S
C5            C6   1.402       .  A
C5          C281   1.411   1_545  A
C5          C202   1.471       .  S
C6            H7   1.084       .  S
C9           C10   1.538       .  S
C9           C15   1.527       .  S
C9           C13   1.535       .  S
C9          C251   1.520       .  S
C10          H17   1.082       .  S
C10          C11   1.365       .  D
C11          C12   1.539       .  S
C11          C41   1.467       .  S
C12          C16   1.543       .  S
C12          C14   1.535       .  S
C12          H18   1.110       .  S
C13          H19   1.087       .  S
C13          C14   1.363       .  D
C14          C21   1.469       .  S
C15          H20   1.086       .  S
C15          C16   1.366       .  D
C16         C182   1.482       .  S
C21          C58   1.460       .  S
C21          N39   1.346       .  A
N22          N39   1.321       .  A
N22          N44   1.320       .  A
N22         Co59   2.072       .  S
C23         C615   1.453       .  S
C23         H622   1.082       .  S
C23          N48   1.339       .  A
H24          C65   1.082       .  S
C25          C29   1.454       .  S
C25          H54   1.082       .  S
C25          N49   1.330       .  A
Co26         N44   2.090   1_455  S
Co26         N34   2.068       .  S
Co26         N66   2.083   1_455  S
Co26         N42   2.075       .  S
Co26        Cl70   2.437   1_455  S
N27          C65   1.345       .  A
N27          N34   1.321       .  A
N27         Co28   2.090       .  S
Co28         N31   2.075   1_565  S
Co28         N48   2.071       .  S
Co28         N35   2.101   1_565  S
Co28        Cl70   2.465   1_455  S
C29         C100   1.466       .  S
C29          N67   1.349       .  A
N30          N37   1.319       .  A
N30          N60   1.320       .  A
N30         Co63   2.061       .  S
N31          N49   1.319       .  A
N31          N67   1.328       .  A
N32         C615   1.346       .  A
N32          N42   1.320       .  A
H33          C58   1.082       .  S
N34          N55   1.318       .  A
N35          N53   1.320       .  A
N35          N40   1.330       .  A
C36         C341   1.450       .  S
C36         C103   1.472       .  S
C36         N317   1.355       .  A
N37          C52   1.343       .  A
N37         Co59   2.091   1_545  S
C38         C595   1.457       .  S
C38         H626   1.082       .  S
C38          N66   1.343       .  A
N40         C590   1.355       .  A
C41         C315   1.457       .  S
C41         N339   1.348       .  A
N42          N48   1.320       .  A
N43          C69   1.346       .  A
N43          N45   1.319       .  A
N43         Co59   2.088   1_545  S
N44          C58   1.345       .  A
N45          N73   1.320       .  A
N45         Co63   2.076       .  S
H46         C346   1.082       .  S
H47         C341   1.082       .  S
N49         Co63   2.071   1_455  S
N50          N62   1.321       .  A
N50          N66   1.320       .  A
N50         Co59   2.079       .  S
C51          C65   1.460       .  S
C51          C91   1.465       .  S
C51          N55   1.344       .  A
C52          C71   1.461       .  S
C52          H56   1.082       .  S
N53          C64   1.331       .  A
N53         Co63   2.062   1_455  S
C57         C346   1.461       .  S
C57          C76   1.472       .  S
C57         N350   1.347       .  A
Co59        Cl70   2.455       .  S
N60          C71   1.344       .  A
C61         C300   1.453       .  S
C61          C88   1.460       .  S
C61         N309   1.346       .  A
N62         C595   1.348       .  A
Co63        Cl70   2.429   1_545  S
C64         C590   1.450       .  S
C64         H601   1.082       .  S
H68         C300   1.082       .  S
C69         C611   1.461       .  S
C69         H600   1.082       .  S
C71          C79   1.467       .  S
H72         C315   1.082       .  S
N73         C611   1.347       .  A
C74          C75   1.532       .  S
C74          C80   1.541       .  S
C74          C78   1.536       .  S
C74         C171   1.529       .  S
C75          H82   1.087       .  S
C75          C76   1.365       .  D
C76          C77   1.539       .  S
C77          C81   1.541       .  S
C77          C79   1.532       .  S
C77          H83   1.111       .  S
C78          H84   1.087       .  S
C78          C79   1.366       .  D
C80          H85   1.081       .  S
C80          C81   1.367       .  D
C81         C262   1.484       .  S
C86          C87   1.539       .  S
C86          C92   1.529       .  S
C86          C90   1.533       .  S
C86         C142   1.516       .  S
C87          H94   1.082       .  S
C87          C88   1.364       .  D
C88          C89   1.535       .  S
C89          C93   1.539       .  S
C89          C91   1.533       .  S
C89          H95   1.111       .  S
C90          H96   1.087       .  S
C90          C91   1.362       .  D
C92          H97   1.086       .  S
C92          C93   1.364       .  D
C93         C222   1.476       .  S
C98          C99   1.525       .  S
C98         C104   1.532       .  S
C98         C102   1.531       .  S
C98         C131   1.515       .  S
C99         H106   1.087       .  S
C99         C100   1.357       .  D
C100        C101   1.538       .  S
C101        C105   1.545       .  S
C101        C103   1.539       .  S
C101        H107   1.111       .  S
C102        H108   1.086       .  S
C102        C103   1.367       .  D
C104        H109   1.083       .  S
C104        C105   1.368       .  D
C105        C211   1.473       .  S
C110        C111   1.412   1_655  A
C110        C115   1.403       .  A
C110        C745   1.470       .  S
C111        C112   1.390       .  A
C111        C705   1.469       .  S
C112        C113   1.394       .  A
C112        H117   1.085       .  S
C113        C114   1.415   1_455  A
C113        C676   1.468       .  S
C114        C115   1.401       .  A
C114        C716   1.479       .  S
C115        H116   1.084       .  S
C118        C119   1.404       .  A
C118        C123   1.391       .  A
C118        H128   1.083       .  S
C119        C397   1.402       .  A
C119        C124   1.467       .  S
C120        C121   1.391       .  A
C120        C673   1.402       .  A
C120        H125   1.083       .  S
C121        C676   1.401       .  A
C121        H126   1.083       .  S
C122        C123   1.401       .  A
C122        C398   1.401       .  A
C122        C390   1.468       .  S
C123        H127   1.083       .  S
C124        C129   1.398       .  A
C124        C133   1.402       .  A
C129        C130   1.387       .  A
C129        H134   1.083       .  S
C130        C131   1.409       .  A
C130        H135   1.084       .  S
C131        C132   1.408       .  A
C132        C133   1.395       .  A
C132        H413   1.079       .  S
C133        H414   1.082       .  S
H136        C686   1.079       .  S
H137        C687   1.082       .  S
C138        C139   1.402       .  A
C138        C143   1.391       .  A
C138        H425   1.083       .  S
C139        C140   1.399       .  A
C139        C144   1.469       .  S
C140        C141   1.393       .  A
C140        H145   1.084       .  S
C141        C142   1.410       .  A
C141        H146   1.083       .  S
C142        C143   1.407       .  A
C143        H424   1.078       .  S
C144        C153   1.404       .  A
C144        C426   1.403       .  A
H147        C697   1.078   1_554  S
H148        C692   1.083   1_554  S
C149        C150   1.392       .  A
C149        C698   1.403       .  A
C149        H154   1.083       .  S
C150        C705   1.401       .  A
C150        H155   1.083       .  S
C151        C152   1.400       .  A
C151        C427   1.401       .  A
C151        C388   1.469       .  S
C152        C153   1.393       .  A
C152        H156   1.083       .  S
C153        H157   1.083       .  S
C158        C163   1.396       .  A
C158        C713   1.405       .  A
C158        H168   1.083   1_556  S
C159        C160   1.409       .  A
C159        C435   1.405       .  A
C159        C164   1.486       .  S
C160        C161   1.399       .  A
C160        H165   1.082       .  S
C161        C162   1.400       .  A
C161        H166   1.084       .  S
C162        C440   1.404       .  A
C162        C391   1.479       .  S
C163        C716   1.404       .  A
C163        H167   1.083   1_556  S
C164        C169   1.404       .  A
C164        C173   1.402       .  A
C169        C170   1.397       .  A
C169        H174   1.083       .  S
C170        C171   1.410       .  A
C170        H175   1.082       .  S
C171        C172   1.411       .  A
C172        C173   1.398       .  A
C172        H176   1.077       .  S
C173        H177   1.082       .  S
C178        C179   1.401       .  A
C178        C183   1.389       .  A
C178        H188   1.084       .  S
C179        C180   1.408       .  A
C179        C184   1.480       .  S
C180        C181   1.402       .  A
C180        H185   1.082       .  S
C181        C182   1.404       .  A
C181        H186   1.084       .  S
C182        C183   1.405       .  A
C183        H187   1.082       .  S
C184        C189   1.408       .  A
C184        C193   1.405       .  A
C189        C190   1.395       .  A
C189        H194   1.083       .  S
C190        C191   1.399       .  A
C190        H472   1.083       .  S
C191        C192   1.401       .  A
C191        C387   1.470       .  S
C192        C193   1.396       .  A
C192        H196   1.083       .  S
C193        H197   1.083       .  S
H195        C744   1.083       .  S
C198        C199   1.407       .  A
C198        C480   1.395       .  A
C198        H208   1.082       .  S
C199        C200   1.406       .  A
C199        C204   1.482       .  S
C200        C201   1.396       .  A
C200        H205   1.083       .  S
C201        C202   1.401       .  A
C201        H206   1.083       .  S
C202        C480   1.399       .  A
C203        C752   1.395       .  A
C203        C756   1.399       .  A
C203        H207   1.084       .  S
C204        C209   1.404       .  A
C204        C213   1.408       .  A
C209        C210   1.394       .  A
C209        H491   1.082       .  S
C210        C211   1.404       .  A
C210        H492   1.083       .  S
C211        C212   1.400       .  A
C212        C213   1.397       .  A
C212        H216   1.083       .  S
C213        H217   1.082       .  S
H214        C763   1.082   1_554  S
H215        C764   1.083   1_554  S
C218        C219   1.405       .  A
C218        C223   1.396       .  A
C218        H228   1.082       .  S
C219        C220   1.403       .  A
C219        C224   1.478       .  S
C220        C221   1.395       .  A
C220        H225   1.083       .  S
C221        C222   1.405       .  A
C221        H226   1.084       .  S
C222        C223   1.401       .  A
C223        H227   1.082       .  S
C224        C229   1.406       .  A
C224        C510   1.405       .  A
C229        C230   1.396       .  A
C229        H234   1.083       .  S
C230        C231   1.400       .  A
C230        H235   1.083       .  S
C231        C509   1.401       .  A
C231        C281   1.474       .  S
C232        C233   1.396       .  A
C232        C785   1.401       .  A
C232        H236   1.083       .  S
C233        C778   1.405       .  A
C233        H237   1.083   1_556  S
C238        C239   1.406       .  A
C238        C243   1.394       .  A
C238        H248   1.083       .  S
C239        C517   1.403       .  A
C239        C244   1.475       .  S
C240        C241   1.393       .  A
C240        C793   1.403       .  A
C240        H245   1.083       .  S
C241        C796   1.402       .  A
C241        H246   1.083       .  S
C242        C243   1.400       .  A
C242        C518   1.402       .  A
C242        C279   1.473       .  S
C243        H247   1.083       .  S
C244        C249   1.401       .  A
C244        C253   1.403       .  A
C249        C250   1.393       .  A
C249        H254   1.083       .  S
C250        C251   1.409       .  A
C250        H255   1.083       .  S
C251        C252   1.408       .  A
C252        C253   1.394       .  A
C252        H256   1.077       .  S
C253        H534   1.084       .  S
H257        C807   1.084   1_554  S
C258        C259   1.402       .  A
C258        C263   1.396       .  A
C258        H268   1.084       .  S
C259        C260   1.407       .  A
C259        C264   1.482       .  S
C260        C261   1.401       .  A
C260        H542   1.083       .  S
C261        C262   1.402       .  A
C261        H266   1.083       .  S
C262        C263   1.407       .  A
C263        H267   1.083       .  S
C264        C269   1.404       .  A
C264        C273   1.407       .  A
H265        C814   1.083       .  S
C269        C270   1.396       .  A
C269        H274   1.083       .  S
C270        C271   1.401       .  A
C270        H275   1.082       .  S
C271        C272   1.403       .  A
C272        C273   1.401       .  A
C272        H276   1.083       .  S
C273        H277   1.082       .  S
C278        C556   1.417   1_545  A
C278        C283   1.403       .  A
C278        C548   1.478       .  S
C279        C280   1.398       .  A
C280        C281   1.393       .  A
C280        H285   1.085       .  S
C282        C558   1.411   1_545  A
C282        C283   1.402       .  A
C282        C479   1.471       .  S
C283        H284   1.084       .  S
C286        C287   1.538       .  S
C286        C292   1.527       .  S
C286        C290   1.535       .  S
C286        C528   1.520       .  S
C287        H294   1.082       .  S
C287        C288   1.365       .  D
C288        C289   1.539       .  S
C288        C318   1.467       .  S
C289        C293   1.543       .  S
C289        C291   1.535       .  S
C289        H295   1.110       .  S
C290        H296   1.087       .  S
C290        C291   1.363       .  D
C291        C298   1.469       .  S
C292        H297   1.086       .  S
C292        C293   1.366       .  D
C293        C459   1.482       .  S
C298        C335   1.460       .  S
C298        N316   1.346       .  A
N299        N316   1.321       .  A
N299        N321   1.320       .  A
N299       Co336   2.072       .  S
C300        N325   1.339       .  A
H301        C342   1.082       .  S
C302        C306   1.454       .  S
C302        H331   1.082       .  S
C302        N326   1.330       .  A
Co303       N321   2.090   1_455  S
Co303       N311   2.068       .  S
Co303       N343   2.083   1_455  S
Co303       N319   2.075       .  S
Co303      Cl347   2.437   1_455  S
N304        C342   1.345       .  A
N304        N311   1.321       .  A
N304       Co305   2.090       .  S
Co305       N308   2.075   1_565  S
Co305       N325   2.071       .  S
Co305       N312   2.101   1_565  S
Co305      Cl347   2.465   1_455  S
C306        C377   1.466       .  S
C306        N344   1.349       .  A
N307        N314   1.319       .  A
N307        N337   1.320       .  A
N307       Co340   2.061       .  S
N308        N326   1.319       .  A
N308        N344   1.328       .  A
N309        N319   1.320       .  A
H310        C335   1.082       .  S
N311        N332   1.318       .  A
N312        N330   1.320       .  A
N312        N317   1.330       .  A
C313        C618   1.450       .  S
C313        C380   1.472       .  S
C313        N594   1.355       .  A
N314        C329   1.343       .  A
N314       Co336   2.091   1_545  S
C315        N343   1.343       .  A
C318        C592   1.457       .  S
C318        N616   1.348       .  A
N319        N325   1.320       .  A
N320        C346   1.346       .  A
N320        N322   1.319       .  A
N320       Co336   2.088   1_545  S
N321        C335   1.345       .  A
N322        N350   1.320       .  A
N322       Co340   2.076       .  S
H323        C623   1.082       .  S
H324        C618   1.082       .  S
N326       Co340   2.071   1_455  S
N327        N339   1.321       .  A
N327        N343   1.320       .  A
N327       Co336   2.079       .  S
C328        C342   1.460       .  S
C328        C368   1.465       .  S
C328        N332   1.344       .  A
C329        C348   1.461       .  S
C329        H333   1.082       .  S
N330        C341   1.331       .  A
N330       Co340   2.062   1_455  S
C334        C623   1.461       .  S
C334        C353   1.472       .  S
C334        N627   1.347       .  A
Co336      Cl347   2.455       .  S
N337        C348   1.344       .  A
C338        C577   1.453       .  S
C338        C365   1.460       .  S
C338        N586   1.346       .  A
Co340      Cl347   2.429   1_545  S
H345        C577   1.082       .  S
C348        C356   1.467       .  S
H349        C592   1.082       .  S
C351        C352   1.532       .  S
C351        C357   1.541       .  S
C351        C355   1.536       .  S
C351        C448   1.529       .  S
C352        H359   1.087       .  S
C352        C353   1.365       .  D
C353        C354   1.539       .  S
C354        C358   1.541       .  S
C354        C356   1.532       .  S
C354        H360   1.111       .  S
C355        H361   1.087       .  S
C355        C356   1.366       .  D
C357        H362   1.081       .  S
C357        C358   1.367       .  D
C358        C539   1.484       .  S
C363        C364   1.539       .  S
C363        C369   1.529       .  S
C363        C367   1.533       .  S
C363        C419   1.516       .  S
C364        H371   1.082       .  S
C364        C365   1.364       .  D
C365        C366   1.535       .  S
C366        C370   1.539       .  S
C366        C368   1.533       .  S
C366        H372   1.111       .  S
C367        H373   1.087       .  S
C367        C368   1.362       .  D
C369        H374   1.086       .  S
C369        C370   1.364       .  D
C370        C499   1.476       .  S
C375        C376   1.525       .  S
C375        C381   1.532       .  S
C375        C379   1.531       .  S
C375        C408   1.515       .  S
C376        H383   1.087       .  S
C376        C377   1.357       .  D
C377        C378   1.538       .  S
C378        C382   1.545       .  S
C378        C380   1.539       .  S
C378        H384   1.111       .  S
C379        H385   1.086       .  S
C379        C380   1.367       .  D
C381        H386   1.083       .  S
C381        C382   1.368       .  D
C382        C488   1.473       .  S
C387        C388   1.412   1_655  A
C387        C392   1.403       .  A
C388        C389   1.390       .  A
C389        C390   1.394       .  A
C389        H394   1.085       .  S
C390        C391   1.415   1_455  A
C391        C392   1.401       .  A
C392        H393   1.084       .  S
C395        C396   1.404       .  A
C395        C400   1.391       .  A
C395        H405   1.083       .  S
C396        C674   1.402       .  A
C396        C401   1.467       .  S
C397        C398   1.391       .  A
C397        H402   1.083       .  S
C398        H403   1.083       .  S
C399        C675   1.401       .  A
C399        C400   1.401       .  A
C399        C667   1.468       .  S
C400        H404   1.083       .  S
C401        C406   1.398       .  A
C401        C410   1.402       .  A
C406        C407   1.387       .  A
C406        H411   1.083       .  S
C407        C408   1.409       .  A
C407        H412   1.084       .  S
C408        C409   1.408       .  A
C409        C410   1.395       .  A
C409        H690   1.079       .  S
C410        H691   1.082       .  S
C415        C416   1.402       .  A
C415        C420   1.391       .  A
C415        H702   1.083       .  S
C416        C417   1.399       .  A
C416        C421   1.469       .  S
C417        C418   1.393       .  A
C417        H422   1.084       .  S
C418        C419   1.410       .  A
C418        H423   1.083       .  S
C419        C420   1.407       .  A
C420        H701   1.078       .  S
C421        C703   1.403       .  A
C421        C430   1.404       .  A
C426        C427   1.392       .  A
C426        H431   1.083       .  S
C427        H432   1.083       .  S
C428        C704   1.401       .  A
C428        C429   1.400       .  A
C428        C665   1.469       .  S
C429        C430   1.393       .  A
C429        H433   1.083       .  S
C430        H434   1.083       .  S
C435        C440   1.396       .  A
C435        H445   1.083       .  S
C436        C712   1.405       .  A
C436        C437   1.409       .  A
C436        C441   1.486       .  S
C437        C438   1.399       .  A
C437        H442   1.082       .  S
C438        C439   1.400       .  A
C438        H443   1.084       .  S
C439        C717   1.404       .  A
C439        C668   1.479       .  S
C440        H444   1.083       .  S
C441        C446   1.404       .  A
C441        C450   1.402       .  A
C446        C447   1.397       .  A
C446        H451   1.083       .  S
C447        C448   1.410       .  A
C447        H452   1.082       .  S
C448        C449   1.411       .  A
C449        C450   1.398       .  A
C449        H453   1.077       .  S
C450        H454   1.082       .  S
C455        C456   1.401       .  A
C455        C460   1.389       .  A
C455        H465   1.084       .  S
C456        C457   1.408       .  A
C456        C461   1.480       .  S
C457        C458   1.402       .  A
C457        H462   1.082       .  S
C458        C459   1.404       .  A
C458        H463   1.084       .  S
C459        C460   1.405       .  A
C460        H464   1.082       .  S
C461        C466   1.408       .  A
C461        C470   1.405       .  A
C466        C467   1.395       .  A
C466        H471   1.083       .  S
C467        C468   1.399       .  A
C467        H749   1.083       .  S
C468        C469   1.401       .  A
C468        C664   1.470       .  S
C469        C470   1.396       .  A
C469        H473   1.083       .  S
C470        H474   1.083       .  S
C475        C476   1.407       .  A
C475        C757   1.395       .  A
C475        H485   1.082       .  S
C476        C477   1.406       .  A
C476        C481   1.482       .  S
C477        C478   1.396       .  A
C477        H482   1.083       .  S
C478        C479   1.401       .  A
C478        H483   1.083       .  S
C479        C757   1.399       .  A
C480        H484   1.084       .  S
C481        C486   1.404       .  A
C481        C490   1.408       .  A
C486        C487   1.394       .  A
C486        H768   1.082       .  S
C487        C488   1.404       .  A
C487        H769   1.083       .  S
C488        C489   1.400       .  A
C489        C490   1.397       .  A
C489        H493   1.083       .  S
C490        H494   1.082       .  S
C495        C496   1.405       .  A
C495        C500   1.396       .  A
C495        H505   1.082       .  S
C496        C497   1.403       .  A
C496        C501   1.478       .  S
C497        C498   1.395       .  A
C497        H502   1.083       .  S
C498        C499   1.405       .  A
C498        H503   1.084       .  S
C499        C500   1.401       .  A
C500        H504   1.082       .  S
C501        C506   1.406       .  A
C501        C787   1.405       .  A
C506        C507   1.396       .  A
C506        H511   1.083       .  S
C507        C508   1.400       .  A
C507        H512   1.083       .  S
C508        C786   1.401       .  A
C508        C558   1.474       .  S
C509        C510   1.396       .  A
C509        H513   1.083       .  S
C510        H514   1.083       .  S
C515        C516   1.406       .  A
C515        C520   1.394       .  A
C515        H525   1.083       .  S
C516        C794   1.403       .  A
C516        C521   1.475       .  S
C517        C518   1.393       .  A
C517        H522   1.083       .  S
C518        H523   1.083       .  S
C519        C795   1.402       .  A
C519        C520   1.400       .  A
C519        C556   1.473       .  S
C520        H524   1.083       .  S
C521        C526   1.401       .  A
C521        C530   1.403       .  A
C526        C527   1.393       .  A
C526        H531   1.083       .  S
C527        C528   1.409       .  A
C527        H532   1.083       .  S
C528        C529   1.408       .  A
C529        C530   1.394       .  A
C529        H533   1.077       .  S
C530        H811   1.084       .  S
C535        C536   1.402       .  A
C535        C540   1.396       .  A
C535        H545   1.084       .  S
C536        C537   1.407       .  A
C536        C541   1.482       .  S
C537        C538   1.401       .  A
C537        H819   1.083       .  S
C538        C539   1.402       .  A
C538        H543   1.083       .  S
C539        C540   1.407       .  A
C540        H544   1.083       .  S
C541        C546   1.404       .  A
C541        C550   1.407       .  A
C546        C547   1.396       .  A
C546        H551   1.083       .  S
C547        C548   1.401       .  A
C547        H552   1.082       .  S
C548        C549   1.403       .  A
C549        C550   1.401       .  A
C549        H553   1.083       .  S
C550        H554   1.082       .  S
C555        C560   1.403       .  A
C555        C825   1.478       .  S
C556        C557   1.399       .  A
C557        C558   1.393       .  A
C557        H562   1.085       .  S
C559        C560   1.401       .  A
C559        C756   1.471       .  S
C560        H561   1.084       .  S
C563        C564   1.538   1_556  S
C563        C569   1.527       .  S
C563        C567   1.535       .  S
C563        C805   1.520       .  S
C564        H571   1.082       .  S
C564        C565   1.365       .  D
C565        C566   1.539   1_554  S
C565        C595   1.467       .  S
C566        C570   1.543       .  S
C566        C568   1.535       .  S
C566        H572   1.110       .  S
C567        H573   1.087       .  S
C567        C568   1.363       .  D
C568        C575   1.469       .  S
C569        H574   1.086       .  S
C569        C570   1.366       .  D
C570        C736   1.482       .  S
C575        C612   1.460       .  S
C575        N593   1.346       .  A
N576        N593   1.321       .  A
N576        N598   1.320       .  A
N576       Co613   2.072       .  S
C577        N602   1.339       .  A
H578        C619   1.082       .  S
C579        C583   1.454       .  S
C579        H608   1.082       .  S
C579        N603   1.330       .  A
Co580       N598   2.090   1_455  S
Co580       N588   2.068       .  S
Co580       N620   2.083   1_455  S
Co580       N596   2.075       .  S
Co580      Cl624   2.437   1_455  S
N581        C619   1.345       .  A
N581        N588   1.321       .  A
N581       Co582   2.090       .  S
Co582       N585   2.075   1_565  S
Co582       N602   2.071       .  S
Co582       N589   2.101   1_565  S
Co582      Cl624   2.465   1_455  S
C583        C654   1.466       .  S
C583        N621   1.349       .  A
N584        N591   1.319       .  A
N584        N614   1.320       .  A
N584       Co617   2.061       .  S
N585        N603   1.319       .  A
N585        N621   1.328       .  A
N586        N596   1.320       .  A
H587        C612   1.082       .  S
N588        N609   1.318       .  A
N589        N607   1.320       .  A
N589        N594   1.330       .  A
C590        C657   1.472       .  S
N591        C606   1.343       .  A
N591       Co613   2.091   1_545  S
C592        N620   1.343       .  A
N596        N602   1.320       .  A
N597        C623   1.346       .  A
N597        N599   1.319       .  A
N597       Co613   2.088   1_545  S
N598        C612   1.345       .  A
N599        N627   1.320       .  A
N599       Co617   2.076       .  S
N603       Co617   2.071   1_455  S
N604        N616   1.321       .  A
N604        N620   1.320       .  A
N604       Co613   2.079       .  S
C605        C619   1.460       .  S
C605        C645   1.465       .  S
C605        N609   1.344       .  A
C606        C625   1.461       .  S
C606        H610   1.082       .  S
N607        C618   1.331       .  A
N607       Co617   2.062   1_455  S
C611        C630   1.472       .  S
Co613      Cl624   2.455       .  S
N614        C625   1.344       .  A
C615        C642   1.460       .  S
Co617      Cl624   2.429   1_545  S
C625        C633   1.467       .  S
C628        C629   1.532   1_556  S
C628        C634   1.541       .  S
C628        C632   1.536       .  S
C628        C725   1.529       .  S
C629        H636   1.087       .  S
C629        C630   1.365       .  D
C630        C631   1.539   1_554  S
C631        C635   1.541       .  S
C631        C633   1.532       .  S
C631        H637   1.111       .  S
C632        H638   1.087       .  S
C632        C633   1.366       .  D
C634        H639   1.081       .  S
C634        C635   1.367       .  D
C635        C816   1.484       .  S
C640        C641   1.539   1_556  S
C640        C646   1.529       .  S
C640        C644   1.533       .  S
C640        C696   1.516       .  S
C641        H648   1.082       .  S
C641        C642   1.364       .  D
C642        C643   1.535   1_554  S
C643        C647   1.539       .  S
C643        C645   1.533       .  S
C643        H649   1.111       .  S
C644        H650   1.087       .  S
C644        C645   1.362       .  D
C646        H651   1.086       .  S
C646        C647   1.364       .  D
C647        C776   1.476       .  S
C652        C653   1.525       .  S
C652        C658   1.532       .  S
C652        C656   1.531       .  S
C652        C685   1.515       .  S
C653        H660   1.087       .  S
C653        C654   1.357       .  D
C654        C655   1.538       .  S
C655        C659   1.545       .  S
C655        C657   1.539   1_556  S
C655        H661   1.111       .  S
C656        H662   1.086   1_556  S
C656        C657   1.367   1_556  D
C658        H663   1.083       .  S
C658        C659   1.368       .  D
C659        C765   1.473       .  S
C664        C665   1.412   1_655  A
C664        C669   1.403       .  A
C665        C666   1.390       .  A
C666        C667   1.394       .  A
C666        H671   1.085       .  S
C667        C668   1.415   1_455  A
C668        C669   1.401       .  A
C669        H670   1.084       .  S
C672        C673   1.404       .  A
C672        C677   1.391       .  A
C672        H682   1.083       .  S
C673        C678   1.467       .  S
C674        C675   1.391       .  A
C674        H679   1.083       .  S
C675        H680   1.083       .  S
C676        C677   1.401       .  A
C677        H681   1.083       .  S
C678        C683   1.398       .  A
C678        C687   1.402       .  A
C683        C684   1.387       .  A
C683        H688   1.083       .  S
C684        C685   1.409       .  A
C684        H689   1.084       .  S
C685        C686   1.408       .  A
C686        C687   1.395       .  A
C692        C693   1.402       .  A
C692        C697   1.391       .  A
C693        C694   1.399       .  A
C693        C698   1.469       .  S
C694        C695   1.393       .  A
C694        H699   1.084       .  S
C695        C696   1.410       .  A
C695        H700   1.083       .  S
C696        C697   1.407       .  A
C698        C707   1.404       .  A
C703        C704   1.392       .  A
C703        H708   1.083       .  S
C704        H709   1.083       .  S
C705        C706   1.400       .  A
C706        C707   1.393       .  A
C706        H710   1.083       .  S
C707        H711   1.083       .  S
C712        C717   1.396       .  A
C712        H722   1.083       .  S
C713        C714   1.409       .  A
C713        C718   1.486       .  S
C714        C715   1.399       .  A
C714        H719   1.082       .  S
C715        C716   1.400       .  A
C715        H720   1.084       .  S
C717        H721   1.083       .  S
C718        C723   1.404       .  A
C718        C727   1.402       .  A
C723        C724   1.397       .  A
C723        H728   1.083       .  S
C724        C725   1.410       .  A
C724        H729   1.082       .  S
C725        C726   1.411       .  A
C726        C727   1.398       .  A
C726        H730   1.077       .  S
C727        H731   1.082       .  S
C732        C733   1.401       .  A
C732        C737   1.389       .  A
C732        H742   1.084       .  S
C733        C734   1.408       .  A
C733        C738   1.480       .  S
C734        C735   1.402       .  A
C734        H739   1.082       .  S
C735        C736   1.404       .  A
C735        H740   1.084       .  S
C736        C737   1.405       .  A
C737        H741   1.082       .  S
C738        C743   1.408       .  A
C738        C747   1.405       .  A
C743        C744   1.395       .  A
C743        H748   1.083       .  S
C744        C745   1.399       .  A
C745        C746   1.401       .  A
C746        C747   1.396       .  A
C746        H750   1.083   1_556  S
C747        H751   1.083   1_556  S
C752        C753   1.407       .  A
C752        H762   1.082       .  S
C753        C754   1.406       .  A
C753        C758   1.482       .  S
C754        C755   1.396       .  A
C754        H759   1.083   1_556  S
C755        C756   1.401       .  A
C755        H760   1.083       .  S
C757        H761   1.084       .  S
C758        C763   1.404       .  A
C758        C767   1.408       .  A
C763        C764   1.394       .  A
C764        C765   1.404       .  A
C765        C766   1.400       .  A
C766        C767   1.397       .  A
C766        H770   1.083       .  S
C767        H771   1.082       .  S
C772        C773   1.405       .  A
C772        C777   1.396       .  A
C772        H782   1.082       .  S
C773        C774   1.403       .  A
C773        C778   1.478       .  S
C774        C775   1.395       .  A
C774        H779   1.083       .  S
C775        C776   1.405       .  A
C775        H780   1.084   1_556  S
C776        C777   1.401       .  A
C777        H781   1.082       .  S
C778        C783   1.406       .  A
C783        C784   1.396       .  A
C783        H788   1.082       .  S
C784        C785   1.400       .  A
C784        H789   1.083       .  S
C786        C787   1.396       .  A
C786        H790   1.083       .  S
C787        H791   1.083       .  S
C792        C793   1.406       .  A
C792        C797   1.394       .  A
C792        H802   1.083       .  S
C793        C798   1.475       .  S
C794        C795   1.393       .  A
C794        H799   1.083       .  S
C795        H800   1.083       .  S
C796        C797   1.400       .  A
C797        H801   1.083       .  S
C798        C803   1.401       .  A
C798        C807   1.403       .  A
C803        C804   1.393       .  A
C803        H808   1.083       .  S
C804        C805   1.409       .  A
C804        H809   1.083       .  S
C805        C806   1.408       .  A
C806        C807   1.394       .  A
C806        H810   1.077   1_556  S
C812        C813   1.402       .  A
C812        C817   1.396       .  A
C812        H822   1.084       .  S
C813        C814   1.407       .  A
C813        C818   1.482       .  S
C814        C815   1.401       .  A
C815        C816   1.402       .  A
C815        H820   1.083       .  S
C816        C817   1.407       .  A
C817        H821   1.083       .  S
C818        C823   1.404       .  A
C818        C827   1.407       .  A
C823        C824   1.396       .  A
C823        H828   1.083       .  S
C824        C825   1.401       .  A
C824        H829   1.082       .  S
C825        C826   1.403       .  A
C826        C827   1.401       .  A
C826        H830   1.083       .  S
C827        H831   1.082       .  S
