geometry optimzed in LAMMPS
_audit_creation_date              2020-11-30 
_audit_creation_method            'lammps2cif' 
_symmetry_space_group_name_H-M    'P1' 
_symmetry_Int_Tables_number       1 
_symmetry_cell_setting            triclinic 
loop_ 
_symmetry_equiv_pos_as_xyz 
  x,y,z 
_cell_length_a                    30.78242736 
_cell_length_b                    30.89461338289523 
_cell_length_c                    31.554926785667362 
_cell_angle_alpha                 89.83962198422813 
_cell_angle_beta                  90.0908386354339 
_cell_angle_gamma                 119.45822490687361 
loop_ 
_atom_site_label 
_atom_site_type_symbol 
_atom_site_fract_x 
_atom_site_fract_y 
_atom_site_fract_z 
_atom_site_charge 
O1          O  0.09627858  0.33496689  0.32406745    -0.83000
C2          C  0.21751865  0.28953463  0.43084979     0.96300
O3          O  0.18000350  0.26014500  0.40955113    -0.72100
O4          O  0.09962595  0.26492340  0.42534623    -0.75700
Al5        Al  0.13378139  0.26776464  0.37475173     1.49000
C6          C  0.07493279  0.28657291  0.43320455     0.91600
O7          O  0.16396759  0.40456405  0.42226279    -0.81900
O8          O  0.23843529  0.40422618  0.32497110    -0.75500
Al9        Al  0.13237265  0.36732015  0.37330904     1.90100
O10         O  0.24037821  0.41968658  0.41072700    -0.74600
O11         O  0.24081569  0.32174011  0.33793025    -0.74400
O12         O  0.23824001  0.33552706  0.42383457    -0.80100
O13         O  0.16452662  0.26282406  0.32454168    -0.78300
O14         O  0.16667864  0.33432516  0.37399148    -1.14400
O15         O  0.07946565  0.25925012  0.33982621    -0.73600
C16         C  0.07185179  0.28890200  0.31777054     0.97100
C17         C  0.20980419  0.42801903  0.43071500     0.93500
Al18       Al  0.23351792  0.36737883  0.37428562     1.55600
O19         O  0.07999694  0.32223823  0.41017357    -0.78200
C20         C  0.21070842  0.28380059  0.31714398     0.97700
C21         C  0.21565427  0.42764124  0.31661201     0.92500
O22         O  0.17689439  0.41927215  0.33660422    -0.83600
O23         O  0.33370914  0.09597440  0.17392011    -0.83000
C24         C  0.29116827  0.21821289  0.06744950     0.96300
O25         O  0.26017425  0.18018864  0.08761270    -0.72100
O26         O  0.26189560  0.09788617  0.07369246    -0.75700
Al27       Al  0.26601866  0.13372490  0.12356916     1.49000
C28         C  0.28254821  0.07206148  0.06697326     0.91600
O29         O  0.40135270  0.16338817  0.07453636    -0.81900
O30         O  0.40113322  0.23465596  0.17591113    -0.75500
Al31       Al  0.36567768  0.13184157  0.12438303     1.90100
O32         O  0.42098907  0.23960692  0.09067910    -0.74600
O33         O  0.32124893  0.24058604  0.16132574    -0.74400
O34         O  0.33702978  0.23916293  0.07583780    -0.80100
O35         O  0.26056160  0.16482884  0.17318597    -0.78300
O36         O  0.33278495  0.16603746  0.12460048    -1.14400
O37         O  0.25780915  0.08037052  0.15942866    -0.73600
C38         C  0.28742390  0.07180384  0.18081858     0.97100
C39         C  0.42777564  0.20944161  0.06850203     0.93500
Al40       Al  0.36700614  0.23258275  0.12578790     1.55600
O41         O  0.32005502  0.07936793  0.08848923    -0.78200
C42         C  0.28284156  0.21050628  0.18158038     0.97700
C43         C  0.42649155  0.21349020  0.18252670     0.92500
O44         O  0.41917734  0.17647976  0.16048987    -0.83600
C45         C  0.03874318  0.26868286  0.46900032    -0.07300
C46         C  0.02295048  0.22083768  0.48535873    -0.18500
C47         C  0.48840000  0.20116352  0.01848543     0.09900
C48         C  0.46682553  0.22885169  0.03503282    -0.07300
C49         C  0.48303888  0.27691143  0.01906663    -0.18500
C50         C  0.01920043  0.29741645  0.48720498     0.09900
S51         S  0.47555319  0.14151880  0.03904160    -0.33500
S52         S  0.04017474  0.36120987  0.47306739    -0.33500
H53         H  0.09086888  0.37525165  0.47765234     0.27900
H54         H  0.47955230  0.15605845  0.08171101     0.27900
H55         H  0.03803482  0.19846426  0.47257259     0.18500
H56         H  0.46779647  0.29917164  0.03180782     0.18500
C57         C  0.46480407  0.23256327  0.21656459    -0.07300
C58         C  0.46169033  0.26326103  0.24791854    -0.18500
C59         C  0.99575783  0.28174166  0.28138685     0.09900
C60         C  0.03390682  0.26916246  0.28418180    -0.07300
C61         C  0.03720119  0.23845218  0.25328110    -0.18500
C62         C  0.50417285  0.22125088  0.21895569     0.09900
S63         S  0.48772680  0.32003111  0.32014588    -0.33500
S64         S  0.01703438  0.18854622  0.17804009    -0.33500
H65         H  0.51180792  0.21625713  0.14488757     0.27900
H66         H  0.00155702  0.30119177  0.35512760     0.27900
H67         H  0.43203450  0.27256892  0.24679376     0.18500
H68         H  0.06725504  0.22969732  0.25487257     0.18500
C69         C  0.26799432  0.03361878  0.21476197    -0.07300
C70         C  0.30048245  0.03761851  0.24779122    -0.18500
C71         C  0.28411945  0.00429964  0.28181787     0.09900
C72         C  0.23428106  0.46533350  0.28286005    -0.07300
C73         C  0.20154876  0.46129932  0.25030897    -0.18500
C74         C  0.21791274  0.49423683  0.21595717     0.09900
S75         S  0.32791298  0.01500368  0.32392969    -0.33500
S76         S  0.17352471  0.48184111  0.17396939    -0.33500
H77         H  0.20754363  0.98912874  0.14128634     0.27900
H78         H  0.29255243  0.50006102  0.35675749     0.27900
H79         H  0.33869934  0.06776922  0.24779724     0.18500
H80         H  0.16335548  0.43107890  0.25088799     0.18500
C81         C  0.22813938  0.46536229  0.46483515    -0.07300
C82         C  0.25927178  0.46266482  0.49587692    -0.18500
C83         C  0.27564152  0.99511173  0.03046847     0.09900
C84         C  0.26292972  0.03342266  0.03322810    -0.07300
C85         C  0.23139621  0.03570786  0.00200196    -0.18500
C86         C  0.21396695  0.50229261  0.46806134     0.09900
S87         S  0.30985533  0.98310308  0.07087670    -0.33500
S88         S  0.17555682  0.51013266  0.42898961    -0.33500
H89         H  0.19570734  0.49783866  0.39408455     0.27900
H90         H  0.28278024  0.98806562  0.10462620     0.27900
H91         H  0.26928193  0.43359765  0.49406409     0.18500
H92         H  0.22103391  0.06450730  0.00337196     0.18500
C93         C  0.27300969  0.23745076  0.03311909    -0.07300
C94         C  0.23794458  0.20321538  0.50486398    -0.18500
C95         C  0.22051626  0.21878320  0.47044130     0.09900
C96         C  0.23708315  0.27020504  0.46468698    -0.07300
C97         C  0.27238428  0.30438753  0.99325418    -0.18500
C98         C  0.29018854  0.28863886  0.02735995     0.09900
S99         S  0.17879932  0.17073282  0.43475766    -0.33500
S100        S  0.33254009  0.33547023  0.06362149    -0.33500
H101        H  0.31216283  0.30641466  0.10026917     0.27900
H102        H  0.20592573  0.19574118  0.39829513     0.27900
H103        H  0.22513371  0.16386166  0.50889590     0.18500
H104        H  0.28539002  0.34380664  0.98981195     0.18500
C105        C  0.22960016  0.26390164  0.28349432    -0.07300
C106        C  0.19836752  0.23930861  0.24887854    -0.18500
C107        C  0.21501522  0.22214043  0.21501052     0.09900
C108        C  0.26392074  0.22926483  0.21557114    -0.07300
C109        C  0.29512566  0.25341031  0.25007737    -0.18500
C110        C  0.27822256  0.26965620  0.28442773     0.09900
S111        S  0.17286015  0.19317777  0.17124156    -0.33500
S112        S  0.31940609  0.29420582  0.32942359    -0.33500
H113        H  0.28142796  0.27010738  0.35976574     0.27900
H114        H  0.20986582  0.21281646  0.13969052     0.27900
H115        H  0.16104958  0.23451370  0.24759590     0.18500
H116        H  0.33237166  0.25793620  0.25098725     0.18500
O117        O  0.09627851  0.33496671  0.82406739    -0.83000
C118        C  0.21751859  0.28953452  0.93084981     0.96300
O119        O  0.18000348  0.26014481  0.90955115    -0.72100
O120        O  0.09962593  0.26492333  0.92534623    -0.75700
Al121      Al  0.13378137  0.26776455  0.87475171     1.49000
C122        C  0.07493277  0.28657288  0.93320456     0.91600
O123        O  0.16396757  0.40456404  0.92226273    -0.81900
O124        O  0.23843533  0.40422612  0.82497116    -0.75500
Al125      Al  0.13237265  0.36732006  0.87330897     1.90100
O126        O  0.24037806  0.41968653  0.91072703    -0.74600
O127        O  0.24081578  0.32174025  0.83793019    -0.74400
O128        O  0.23824000  0.33552699  0.92383452    -0.80100
O129        O  0.16452673  0.26282408  0.82454168    -0.78300
O130        O  0.16667862  0.33432505  0.87399143    -1.14400
O131        O  0.07946568  0.25924998  0.83982615    -0.73600
C132        C  0.07185178  0.28890186  0.81777049     0.97100
C133        C  0.20980410  0.42801904  0.93071501     0.93500
Al134      Al  0.23351791  0.36737880  0.87428562     1.55600
O135        O  0.07999690  0.32223813  0.91017356    -0.78200
C136        C  0.21070862  0.28380065  0.81714401     0.97700
C137        C  0.21565429  0.42764117  0.81661195     0.92500
O138        O  0.17689442  0.41927213  0.83660412    -0.83600
O139        O  0.33370904  0.09597434  0.67392004    -0.83000
C140        C  0.29116837  0.21821298  0.56744942     0.96300
O141        O  0.26017433  0.18018872  0.58761255    -0.72100
O142        O  0.26189558  0.09788615  0.57369250    -0.75700
Al143      Al  0.26601874  0.13372497  0.62356911     1.49000
C144        C  0.28254820  0.07206144  0.56697326     0.91600
O145        O  0.40135285  0.16338830  0.57453624    -0.81900
O146        O  0.40113325  0.23465597  0.67591114    -0.75500
Al147      Al  0.36567766  0.13184160  0.62438295     1.90100
O148        O  0.42098911  0.23960687  0.59067916    -0.74600
O149        O  0.32124893  0.24058602  0.66132577    -0.74400
O150        O  0.33702991  0.23916296  0.57583777    -0.80100
O151        O  0.26056160  0.16482887  0.67318585    -0.78300
O152        O  0.33278497  0.16603752  0.62460048    -1.14400
O153        O  0.25780921  0.08037062  0.65942868    -0.73600
C154        C  0.28742383  0.07180385  0.68081861     0.97100
C155        C  0.42777578  0.20944162  0.56850203     0.93500
Al156      Al  0.36700617  0.23258275  0.62578792     1.55600
O157        O  0.32005507  0.07936794  0.58848907    -0.78200
C158        C  0.28284150  0.21050627  0.68158032     0.97700
C159        C  0.42649160  0.21349031  0.68252665     0.92500
O160        O  0.41917741  0.17647987  0.66048980    -0.83600
C161        C  0.03874323  0.26868276  0.96900035    -0.07300
C162        C  0.02295026  0.22083784  0.98535889    -0.18500
C163        C  0.48840008  0.20116348  0.51848542     0.09900
C164        C  0.46682546  0.22885175  0.53503281    -0.07300
C165        C  0.48303892  0.27691109  0.51906646    -0.18500
C166        C  0.01920048  0.29741663  0.98720505     0.09900
S167        S  0.47555326  0.14151869  0.53904149    -0.33500
S168        S  0.04017546  0.36121013  0.97306745    -0.33500
H169        H  0.09086958  0.37525182  0.97765238     0.27900
H170        H  0.47955211  0.15605793  0.58171100     0.27900
H171        H  0.03803540  0.19846275  0.97257202     0.18500
H172        H  0.46779473  0.29917293  0.53180836     0.18500
C173        C  0.46480401  0.23256329  0.71656451    -0.07300
C174        C  0.46169024  0.26326118  0.74791842    -0.18500
C175        C  0.99575790  0.28174173  0.78138679     0.09900
C176        C  0.03390703  0.26916234  0.78418175    -0.07300
C177        C  0.03720083  0.23845229  0.75328111    -0.18500
C178        C  0.50417264  0.22125099  0.71895561     0.09900
S179        S  0.48772682  0.32003129  0.82014579    -0.33500
S180        S  0.01703421  0.18854582  0.67804045    -0.33500
H181        H  0.51180811  0.21625676  0.64488742     0.27900
H182        H  0.00155732  0.30119160  0.85512754     0.27900
H183        H  0.43203484  0.27256957  0.74679332     0.18500
H184        H  0.06725817  0.22969636  0.75487277     0.18500
C185        C  0.26799425  0.03361858  0.71476189    -0.07300
C186        C  0.30048230  0.03761843  0.74779122    -0.18500
C187        C  0.28411936  0.00429956  0.78181777     0.09900
C188        C  0.23428127  0.46533377  0.78286009    -0.07300
C189        C  0.20154826  0.46129906  0.75030898    -0.18500
C190        C  0.21791284  0.49423697  0.71595713     0.09900
S191        S  0.32791294  0.01500355  0.82392954    -0.33500
S192        S  0.17352451  0.48184131  0.67396957    -0.33500
H193        H  0.20754339  0.98912876  0.64128620     0.27900
H194        H  0.29255245  0.50006102  0.85675716     0.27900
H195        H  0.33869933  0.06776858  0.74779704     0.18500
H196        H  0.16335831  0.43108157  0.75088802     0.18500
C197        C  0.22813929  0.46536231  0.96483519    -0.07300
C198        C  0.25927183  0.46266471  0.99587691    -0.18500
C199        C  0.27564157  0.99511171  0.53046854     0.09900
C200        C  0.26292986  0.03342289  0.53322802    -0.07300
C201        C  0.23139644  0.03570775  0.50200185    -0.18500
C202        C  0.21396696  0.50229273  0.96806134     0.09900
S203        S  0.30985540  0.98310306  0.57087671    -0.33500
S204        S  0.17555668  0.51013260  0.92898966    -0.33500
H205        H  0.19570699  0.49783846  0.89408451     0.27900
H206        H  0.28278062  0.98806586  0.60462633     0.27900
H207        H  0.26928172  0.43359789  0.99406429     0.18500
H208        H  0.22103386  0.06450963  0.50337145     0.18500
C209        C  0.27300997  0.23745118  0.53311902    -0.07300
C210        C  0.23794464  0.20321571  0.00486389    -0.18500
C211        C  0.22051613  0.21878299  0.97044135     0.09900
C212        C  0.23708331  0.27020503  0.96468696    -0.07300
C213        C  0.27238426  0.30438755  0.49325405    -0.18500
C214        C  0.29018871  0.28863914  0.52735979     0.09900
S215        S  0.17879937  0.17073276  0.93475756    -0.33500
S216        S  0.33254067  0.33547081  0.56362083    -0.33500
H217        H  0.31216396  0.30641569  0.60026880     0.27900
H218        H  0.20592571  0.19574139  0.89829509     0.27900
H219        H  0.22513207  0.16385804  0.00889633     0.18500
H220        H  0.28538977  0.34380729  0.48981191     0.18500
C221        C  0.22960040  0.26390183  0.78349424    -0.07300
C222        C  0.19836784  0.23930872  0.74887856    -0.18500
C223        C  0.21501547  0.22214067  0.71501052     0.09900
C224        C  0.26392117  0.22926509  0.71557115    -0.07300
C225        C  0.29512535  0.25341036  0.75007735    -0.18500
C226        C  0.27822293  0.26965617  0.78442771     0.09900
S227        S  0.17286050  0.19317811  0.67124142    -0.33500
S228        S  0.31940655  0.29420603  0.82942325    -0.33500
H229        H  0.28142844  0.27010773  0.85976538     0.27900
H230        H  0.20986643  0.21281688  0.63969061     0.27900
H231        H  0.16104978  0.23451433  0.74759561     0.18500
H232        H  0.33237580  0.25793664  0.75098742     0.18500
O233        O  0.09627846  0.83496667  0.32406742    -0.83000
C234        C  0.21751859  0.78953452  0.43084977     0.96300
O235        O  0.18000344  0.76014476  0.40955117    -0.72100
O236        O  0.09962598  0.76492333  0.42534634    -0.75700
Al237      Al  0.13378136  0.76776452  0.37475177     1.49000
C238        C  0.07493275  0.78657282  0.43320457     0.91600
O239        O  0.16396755  0.90456404  0.42226279    -0.81900
O240        O  0.23843530  0.90422612  0.32497119    -0.75500
Al241      Al  0.13237261  0.86732006  0.37330900     1.90100
O242        O  0.24037802  0.91968648  0.41072706    -0.74600
O243        O  0.24081575  0.82174025  0.33793024    -0.74400
O244        O  0.23823994  0.83552696  0.42383452    -0.80100
O245        O  0.16452675  0.76282404  0.32454169    -0.78300
O246        O  0.16667858  0.83432504  0.37399145    -1.14400
O247        O  0.07946564  0.75924994  0.33982625    -0.73600
C248        C  0.07185178  0.78890179  0.31777052     0.97100
C249        C  0.20980412  0.92801903  0.43071502     0.93500
Al250      Al  0.23351787  0.86737878  0.37428565     1.55600
O251        O  0.07999684  0.82223812  0.41017357    -0.78200
C252        C  0.21070854  0.78380062  0.31714400     0.97700
C253        C  0.21565431  0.92764120  0.31661201     0.92500
O254        O  0.17689438  0.91927212  0.33660415    -0.83600
O255        O  0.33370906  0.59597437  0.17392017    -0.83000
C256        C  0.29116832  0.71821296  0.06744944     0.96300
O257        O  0.26017428  0.68018876  0.08761259    -0.72100
O258        O  0.26189559  0.59788619  0.07369252    -0.75700
Al259      Al  0.26601872  0.63372497  0.12356914     1.49000
C260        C  0.28254818  0.57206141  0.06697331     0.91600
O261        O  0.40135284  0.66338828  0.07453630    -0.81900
O262        O  0.40113324  0.73465597  0.17591113    -0.75500
Al263      Al  0.36567769  0.63184166  0.12438304     1.90100
O264        O  0.42098909  0.73960688  0.09067922    -0.74600
O265        O  0.32124895  0.74058606  0.16132580    -0.74400
O266        O  0.33702989  0.73916295  0.07583775    -0.80100
O267        O  0.26056159  0.66482888  0.17318586    -0.78300
O268        O  0.33278499  0.66603758  0.12460050    -1.14400
O269        O  0.25780912  0.58037060  0.15942878    -0.73600
C270        C  0.28742386  0.57180385  0.18081867     0.97100
C271        C  0.42777565  0.70944164  0.06850200     0.93500
Al272      Al  0.36700620  0.73258281  0.12578793     1.55600
O273        O  0.32005501  0.57936794  0.08848916    -0.78200
C274        C  0.28284156  0.71050631  0.18158035     0.97700
C275        C  0.42649161  0.71349039  0.18252667     0.92500
O276        O  0.41917740  0.67647995  0.16048985    -0.83600
C277        C  0.03874331  0.76868282  0.46900035    -0.07300
C278        C  0.02295042  0.72083778  0.48535883    -0.18500
C279        C  0.48839997  0.70116355  0.01848551     0.09900
C280        C  0.46682546  0.72885177  0.03503287    -0.07300
C281        C  0.48303898  0.77691121  0.01906651    -0.18500
C282        C  0.01920049  0.79741648  0.48720496     0.09900
S283        S  0.47555323  0.64151869  0.03904149    -0.33500
S284        S  0.04017537  0.86121009  0.47306751    -0.33500
H285        H  0.09086950  0.87525181  0.47765244     0.27900
H286        H  0.47955211  0.65605788  0.08171102     0.27900
H287        H  0.03803535  0.69846313  0.47257197     0.18500
H288        H  0.46779489  0.79917304  0.03180838     0.18500
C289        C  0.46480397  0.73256327  0.21656457    -0.07300
C290        C  0.46169025  0.76326114  0.24791852    -0.18500
C291        C  0.99575814  0.78174160  0.28138684     0.09900
C292        C  0.03390712  0.76916220  0.28418175    -0.07300
C293        C  0.03720087  0.73845212  0.25328100    -0.18500
C294        C  0.50417256  0.72125091  0.21895562     0.09900
S295        S  0.48772699  0.82003128  0.32014587    -0.33500
S296        S  0.01703415  0.68854599  0.17804007    -0.33500
H297        H  0.51180793  0.71625697  0.14488753     0.27900
H298        H  0.00155726  0.80119155  0.35512762     0.27900
H299        H  0.43203500  0.77256956  0.24679350     0.18500
H300        H  0.06725841  0.72969574  0.25487270     0.18500
C301        C  0.26799408  0.53361846  0.21476188    -0.07300
C302        C  0.30048259  0.53761863  0.24779129    -0.18500
C303        C  0.28411914  0.50429927  0.28181785     0.09900
C304        C  0.23428129  0.96533372  0.28286011    -0.07300
C305        C  0.20154847  0.96129921  0.25030908    -0.18500
C306        C  0.21791299  0.99423694  0.21595718     0.09900
S307        S  0.32791282  0.51500347  0.32392970    -0.33500
S308        S  0.17352487  0.98184123  0.17396940    -0.33500
H309        H  0.20754339  0.48912896  0.14128616     0.27900
H310        H  0.29255215  0.00006095  0.35675710     0.27900
H311        H  0.33869628  0.56776647  0.24779725     0.18500
H312        H  0.16335787  0.93108122  0.25088810     0.18500
C313        C  0.22813919  0.96536238  0.46483517    -0.07300
C314        C  0.25927193  0.96266448  0.49587687    -0.18500
C315        C  0.27564155  0.49511150  0.03046856     0.09900
C316        C  0.26292990  0.53342284  0.03322801    -0.07300
C317        C  0.23139649  0.53570769  0.00200193    -0.18500
C318        C  0.21396697  0.00229273  0.46806124     0.09900
S319        S  0.30985557  0.48310321  0.07087667    -0.33500
S320        S  0.17555665  0.01013251  0.42898955    -0.33500
H321        H  0.19570718  0.99783841  0.39408454     0.27900
H322        H  0.28278069  0.48806583  0.10462629     0.27900
H323        H  0.26928130  0.93360028  0.49406423     0.18500
H324        H  0.22103372  0.56450947  0.00337179     0.18500
C325        C  0.27300989  0.73745104  0.03311904    -0.07300
C326        C  0.23794444  0.70321530  0.50486402    -0.18500
C327        C  0.22051623  0.71878327  0.47044127     0.09900
C328        C  0.23708317  0.77020505  0.46468693    -0.07300
C329        C  0.27238435  0.80438790  0.99325404    -0.18500
C330        C  0.29018852  0.78863876  0.02735988     0.09900
S331        S  0.17879937  0.67073273  0.43475766    -0.33500
S332        S  0.33254041  0.83547053  0.06362096    -0.33500
H333        H  0.31216346  0.80641508  0.10026875     0.27900
H334        H  0.20592559  0.69574128  0.39829511     0.27900
H335        H  0.22513347  0.66386223  0.50889613     0.18500
H336        H  0.28538846  0.84380336  0.98981236     0.18500
C337        C  0.22960057  0.76390177  0.28349436    -0.07300
C338        C  0.19836724  0.73930863  0.24887854    -0.18500
C339        C  0.21501566  0.72214061  0.21501050     0.09900
C340        C  0.26392094  0.72926501  0.21557113    -0.07300
C341        C  0.29512577  0.75341039  0.25007742    -0.18500
C342        C  0.27822272  0.76965623  0.28442778     0.09900
S343        S  0.17286049  0.69317806  0.17124149    -0.33500
S344        S  0.31940633  0.79420586  0.32942349    -0.33500
H345        H  0.28142832  0.77010754  0.35976574     0.27900
H346        H  0.20986636  0.71281681  0.13969061     0.27900
H347        H  0.16105388  0.73451470  0.24759581     0.18500
H348        H  0.33237213  0.75793612  0.25098745     0.18500
O349        O  0.09627847  0.83496666  0.82406733    -0.83000
C350        C  0.21751855  0.78953455  0.93084978     0.96300
O351        O  0.18000340  0.76014479  0.90955111    -0.72100
O352        O  0.09962594  0.76492323  0.92534625    -0.75700
Al353      Al  0.13378141  0.76776454  0.87475171     1.49000
C354        C  0.07493286  0.78657283  0.93320459     0.91600
O355        O  0.16396746  0.90456400  0.92226275    -0.81900
O356        O  0.23843517  0.90422616  0.82497115    -0.75500
Al357      Al  0.13237261  0.86732000  0.87330897     1.90100
O358        O  0.24037809  0.91968649  0.91072702    -0.74600
O359        O  0.24081581  0.82174022  0.83793016    -0.74400
O360        O  0.23823998  0.83552697  0.92383441    -0.80100
O361        O  0.16452667  0.76282400  0.82454168    -0.78300
O362        O  0.16667870  0.83432507  0.87399145    -1.14400
O363        O  0.07946563  0.75925003  0.83982622    -0.73600
C364        C  0.07185172  0.78890186  0.81777052     0.97100
C365        C  0.20980404  0.92801884  0.93071505     0.93500
Al366      Al  0.23351795  0.86737885  0.87428558     1.55600
O367        O  0.07999684  0.82223808  0.91017349    -0.78200
C368        C  0.21070856  0.78380075  0.81714385     0.97700
C369        C  0.21565427  0.92764126  0.81661204     0.92500
O370        O  0.17689436  0.91927204  0.83660423    -0.83600
O371        O  0.33370910  0.59597445  0.67392016    -0.83000
C372        C  0.29116810  0.71821291  0.56744961     0.96300
O373        O  0.26017411  0.68018862  0.58761274    -0.72100
O374        O  0.26189554  0.59788632  0.57369239    -0.75700
Al375      Al  0.26601858  0.63372490  0.62356913     1.49000
C376        C  0.28254806  0.57206150  0.56697328     0.91600
O377        O  0.40135268  0.66338826  0.57453634    -0.81900
O378        O  0.40113322  0.73465597  0.67591118    -0.75500
Al379      Al  0.36567763  0.63184163  0.62438302     1.90100
O380        O  0.42098910  0.73960699  0.59067914    -0.74600
O381        O  0.32124891  0.74058604  0.66132590    -0.74400
O382        O  0.33702971  0.73916298  0.57583782    -0.80100
O383        O  0.26056156  0.66482880  0.67318590    -0.78300
O384        O  0.33278488  0.66603751  0.62460050    -1.14400
O385        O  0.25780912  0.58037058  0.65942862    -0.73600
C386        C  0.28742390  0.57180391  0.68081859     0.97100
C387        C  0.42777563  0.70944173  0.56850204     0.93500
Al388      Al  0.36700614  0.73258283  0.62578791     1.55600
O389        O  0.32005491  0.57936798  0.58848916    -0.78200
C390        C  0.28284144  0.71050621  0.68158040     0.97700
C391        C  0.42649150  0.71349025  0.68252672     0.92500
O392        O  0.41917727  0.67647985  0.66048976    -0.83600
C393        C  0.03874332  0.76868277  0.96900034    -0.07300
C394        C  0.02295045  0.72083778  0.98535885    -0.18500
C395        C  0.48839988  0.70116355  0.51848549     0.09900
C396        C  0.46682544  0.72885164  0.53503282    -0.07300
C397        C  0.48303872  0.77691148  0.51906667    -0.18500
C398        C  0.01920047  0.79741638  0.98720496     0.09900
S399        S  0.47555303  0.64151867  0.53904145    -0.33500
S400        S  0.04017467  0.86120978  0.97306737    -0.33500
H401        H  0.09086884  0.87525167  0.97765221     0.27900
H402        H  0.47955215  0.65605810  0.58171094     0.27900
H403        H  0.03803602  0.69846321  0.97257226     0.18500
H404        H  0.46779585  0.79917127  0.53180755     0.18500
C405        C  0.46480419  0.73256332  0.71656455    -0.07300
C406        C  0.46169016  0.76326112  0.74791852    -0.18500
C407        C  0.99575791  0.78174158  0.78138683     0.09900
C408        C  0.03390715  0.76916233  0.78418178    -0.07300
C409        C  0.03720070  0.73845228  0.75328116    -0.18500
C410        C  0.50417279  0.72125076  0.71895583     0.09900
S411        S  0.48772686  0.82003121  0.82014586    -0.33500
S412        S  0.01703422  0.68854573  0.67804052    -0.33500
H413        H  0.51180821  0.71625693  0.64488759     0.27900
H414        H  0.00155722  0.80119195  0.85512759     0.27900
H415        H  0.43203564  0.77256903  0.74679354     0.18500
H416        H  0.06725895  0.72969582  0.75487295     0.18500
C417        C  0.26799401  0.53361861  0.71476191    -0.07300
C418        C  0.30048283  0.53761885  0.74779122    -0.18500
C419        C  0.28411929  0.50429938  0.78181780     0.09900
C420        C  0.23428110  0.96533358  0.78286001    -0.07300
C421        C  0.20154874  0.96129939  0.75030901    -0.18500
C422        C  0.21791271  0.99423682  0.71595721     0.09900
S423        S  0.32791304  0.51500346  0.82392955    -0.33500
S424        S  0.17352474  0.98184122  0.67396937    -0.33500
H425        H  0.20754288  0.48912872  0.64128619     0.27900
H426        H  0.29255233  0.00006084  0.85675714     0.27900
H427        H  0.33869603  0.56776631  0.74779714     0.18500
H428        H  0.16335524  0.93107935  0.75088823     0.18500
C429        C  0.22813909  0.96536231  0.96483507    -0.07300
C430        C  0.25927188  0.96266454  0.99587675    -0.18500
C431        C  0.27564156  0.49511163  0.53046855     0.09900
C432        C  0.26292971  0.53342286  0.53322808    -0.07300
C433        C  0.23139638  0.53570765  0.50200186    -0.18500
C434        C  0.21396683  0.00229255  0.96806124     0.09900
S435        S  0.30985543  0.48310312  0.57087673    -0.33500
S436        S  0.17555650  0.01013275  0.92898981    -0.33500
H437        H  0.19570668  0.99783863  0.89408457     0.27900
H438        H  0.28278047  0.48806574  0.60462628     0.27900
H439        H  0.26928146  0.93360030  0.99406409     0.18500
H440        H  0.22103319  0.56450903  0.50337161     0.18500
C441        C  0.27300986  0.73745109  0.53311906    -0.07300
C442        C  0.23794448  0.70321525  0.00486400    -0.18500
C443        C  0.22051616  0.71878309  0.97044130     0.09900
C444        C  0.23708305  0.77020475  0.96468695    -0.07300
C445        C  0.27238429  0.80438768  0.49325405    -0.18500
C446        C  0.29018858  0.78863895  0.52735985     0.09900
S447        S  0.17879915  0.67073272  0.93475771    -0.33500
S448        S  0.33254060  0.83547060  0.56362097    -0.33500
H449        H  0.31216352  0.80641543  0.60026888     0.27900
H450        H  0.20592567  0.69574110  0.89829521     0.27900
H451        H  0.22513355  0.66386140  0.00889594     0.18500
H452        H  0.28538996  0.84380638  0.48981181     0.18500
C453        C  0.22960032  0.76390171  0.78349421    -0.07300
C454        C  0.19836773  0.73930867  0.74887853    -0.18500
C455        C  0.21501534  0.72214052  0.71501055     0.09900
C456        C  0.26392100  0.72926492  0.71557120    -0.07300
C457        C  0.29512524  0.75341022  0.75007741    -0.18500
C458        C  0.27822285  0.76965615  0.78442771     0.09900
S459        S  0.17286017  0.69317788  0.67124162    -0.33500
S460        S  0.31940605  0.79420570  0.82942356    -0.33500
H461        H  0.28142741  0.77010719  0.85976523     0.27900
H462        H  0.20986579  0.71281625  0.63969054     0.27900
H463        H  0.16105009  0.73451428  0.74759569     0.18500
H464        H  0.33237545  0.75793638  0.75098757     0.18500
O465        O  0.59627855  0.33496685  0.32406740    -0.83000
C466        C  0.71751863  0.28953467  0.43084982     0.96300
O467        O  0.68000352  0.26014502  0.40955117    -0.72100
O468        O  0.59962597  0.26492335  0.42534622    -0.75700
Al469      Al  0.63378139  0.26776463  0.37475175     1.49000
C470        C  0.57493291  0.28657298  0.43320463     0.91600
O471        O  0.66396753  0.40456407  0.42226278    -0.81900
O472        O  0.73843519  0.40422621  0.32497112    -0.75500
Al473      Al  0.63237261  0.36732013  0.37330902     1.90100
O474        O  0.74037814  0.41968654  0.41072702    -0.74600
O475        O  0.74081574  0.32174019  0.33793016    -0.74400
O476        O  0.73824001  0.33552707  0.42383448    -0.80100
O477        O  0.66452661  0.26282404  0.32454171    -0.78300
O478        O  0.66667860  0.33432516  0.37399150    -1.14400
O479        O  0.57946562  0.25925008  0.33982621    -0.73600
C480        C  0.57185181  0.28890200  0.31777049     0.97100
C481        C  0.70980413  0.42801900  0.43071501     0.93500
Al482      Al  0.73351788  0.36737886  0.37428559     1.55600
O483        O  0.57999690  0.32223817  0.41017357    -0.78200
C484        C  0.71070848  0.28380060  0.31714396     0.97700
C485        C  0.71565424  0.42764123  0.31661200     0.92500
O486        O  0.67689438  0.41927211  0.33660423    -0.83600
O487        O  0.83370913  0.09597437  0.17392009    -0.83000
C488        C  0.79116819  0.21821292  0.06744951     0.96300
O489        O  0.76017414  0.18018857  0.08761260    -0.72100
O490        O  0.76189560  0.09788619  0.07369244    -0.75700
Al491      Al  0.76601867  0.13372490  0.12356914     1.49000
C492        C  0.78254818  0.07206146  0.06697330     0.91600
O493        O  0.90135273  0.16338820  0.07453635    -0.81900
O494        O  0.90113326  0.23465592  0.17591111    -0.75500
Al495      Al  0.86567763  0.13184158  0.12438303     1.90100
O496        O  0.92098905  0.23960692  0.09067907    -0.74600
O497        O  0.82124891  0.24058602  0.16132586    -0.74400
O498        O  0.83702974  0.23916297  0.07583781    -0.80100
O499        O  0.76056158  0.16482884  0.17318593    -0.78300
O500        O  0.83278490  0.16603746  0.12460048    -1.14400
O501        O  0.75780929  0.08037059  0.15942869    -0.73600
C502        C  0.78742395  0.07180382  0.18081859     0.97100
C503        C  0.92777560  0.20944159  0.06850195     0.93500
Al504      Al  0.86700613  0.23258272  0.12578792     1.55600
O505        O  0.82005506  0.07936792  0.08848925    -0.78200
C506        C  0.78284143  0.21050624  0.18158037     0.97700
C507        C  0.92649152  0.21349023  0.18252669     0.92500
O508        O  0.91917732  0.17647980  0.16048979    -0.83600
C509        C  0.53874324  0.26868273  0.46900030    -0.07300
C510        C  0.52295043  0.22083792  0.48535890    -0.18500
C511        C  0.98839997  0.20116355  0.01848543     0.09900
C512        C  0.96682543  0.22885185  0.03503279    -0.07300
C513        C  0.98303902  0.27691131  0.01906648    -0.18500
C514        C  0.51920033  0.29741646  0.48720505     0.09900
S515        S  0.97555308  0.14151880  0.03904162    -0.33500
S516        S  0.54017463  0.36120981  0.47306736    -0.33500
H517        H  0.59086878  0.37525167  0.47765229     0.27900
H518        H  0.97955229  0.15605871  0.08171096     0.27900
H519        H  0.53803623  0.19846302  0.47257200     0.18500
H520        H  0.96779509  0.29917331  0.03180857     0.18500
C521        C  0.96480411  0.23256330  0.21656452    -0.07300
C522        C  0.96169000  0.26326116  0.24791851    -0.18500
C523        C  0.49575786  0.28174152  0.28138684     0.09900
C524        C  0.53390715  0.26916233  0.28418169    -0.07300
C525        C  0.53720081  0.23845228  0.25328101    -0.18500
C526        C  0.00417260  0.22125095  0.21895566     0.09900
S527        S  0.98772687  0.32003139  0.32014573    -0.33500
S528        S  0.51703430  0.18854616  0.17804008    -0.33500
H529        H  0.01180802  0.21625706  0.14488743     0.27900
H530        H  0.50155718  0.30119139  0.35512751     0.27900
H531        H  0.93203548  0.27256872  0.24679369     0.18500
H532        H  0.56725892  0.22969630  0.25487258     0.18500
C533        C  0.76799429  0.03361872  0.21476197    -0.07300
C534        C  0.80048247  0.03761853  0.24779122    -0.18500
C535        C  0.78411941  0.00429965  0.28181783     0.09900
C536        C  0.73428082  0.46533336  0.28286001    -0.07300
C537        C  0.70154886  0.46129946  0.25030895    -0.18500
C538        C  0.71791248  0.49423664  0.21595717     0.09900
S539        S  0.82791320  0.01500368  0.32392942    -0.33500
S540        S  0.67352463  0.48184113  0.17396939    -0.33500
H541        H  0.70754342  0.98912877  0.14128623     0.27900
H542        H  0.79255190  0.50006073  0.35675711     0.27900
H543        H  0.83869904  0.06776909  0.24779730     0.18500
H544        H  0.66335295  0.43107727  0.25088810     0.18500
C545        C  0.72813933  0.46536228  0.46483513    -0.07300
C546        C  0.75927179  0.46266467  0.49587690    -0.18500
C547        C  0.77564159  0.99511165  0.03046856     0.09900
C548        C  0.76292984  0.03342262  0.03322812    -0.07300
C549        C  0.73139627  0.03570796  0.00200193    -0.18500
C550        C  0.71396696  0.50229252  0.46806132     0.09900
S551        S  0.80985551  0.98310309  0.07087671    -0.33500
S552        S  0.67555668  0.51013272  0.42898971    -0.33500
H553        H  0.69570684  0.49783859  0.39408444     0.27900
H554        H  0.78278058  0.98806564  0.10462634     0.27900
H555        H  0.76928173  0.43359777  0.49406413     0.18500
H556        H  0.72103424  0.06450695  0.00337180     0.18500
C557        C  0.77300964  0.23745077  0.03311907    -0.07300
C558        C  0.73794439  0.20321529  0.50486406    -0.18500
C559        C  0.72051615  0.21878316  0.47044134     0.09900
C560        C  0.73708320  0.27020501  0.46468695    -0.07300
C561        C  0.77238411  0.30438735  0.99325404    -0.18500
C562        C  0.79018852  0.28863892  0.02735979     0.09900
S563        S  0.67879915  0.17073277  0.43475779    -0.33500
S564        S  0.83254049  0.33547050  0.06362097    -0.33500
H565        H  0.81216331  0.30641529  0.10026883     0.27900
H566        H  0.70592557  0.19574104  0.39829522     0.27900
H567        H  0.72513358  0.16386163  0.50889597     0.18500
H568        H  0.78538986  0.34380733  0.98981179     0.18500
C569        C  0.72960026  0.26390168  0.28349426    -0.07300
C570        C  0.69836774  0.23930866  0.24887852    -0.18500
C571        C  0.71501527  0.22214045  0.21501056     0.09900
C572        C  0.76392096  0.22926490  0.21557119    -0.07300
C573        C  0.79512521  0.25341026  0.25007740    -0.18500
C574        C  0.77822284  0.26965624  0.28442772     0.09900
S575        S  0.67285999  0.19317770  0.17124175    -0.33500
S576        S  0.81940604  0.29420585  0.32942364    -0.33500
H577        H  0.78142783  0.27010734  0.35976569     0.27900
H578        H  0.70986539  0.21281606  0.13969048     0.27900
H579        H  0.66104960  0.23451370  0.24759586     0.18500
H580        H  0.83237542  0.25793659  0.25098745     0.18500
O581        O  0.59627852  0.33496676  0.82406739    -0.83000
C582        C  0.71751849  0.28953442  0.93084976     0.96300
O583        O  0.68000341  0.26014484  0.90955112    -0.72100
O584        O  0.59962588  0.26492333  0.92534619    -0.75700
Al585      Al  0.63378133  0.26776453  0.87475170     1.49000
C586        C  0.57493274  0.28657289  0.93320451     0.91600
O587        O  0.66396761  0.40456404  0.92226277    -0.81900
O588        O  0.73843531  0.40422617  0.82497117    -0.75500
Al589      Al  0.63237261  0.36732006  0.87330900     1.90100
O590        O  0.74037823  0.41968657  0.91072704    -0.74600
O591        O  0.74081569  0.32174014  0.83793019    -0.74400
O592        O  0.73823993  0.33552688  0.92383448    -0.80100
O593        O  0.66452661  0.26282401  0.82454168    -0.78300
O594        O  0.66667858  0.33432503  0.87399142    -1.14400
O595        O  0.57946562  0.25925001  0.83982616    -0.73600
C596        C  0.57185172  0.28890185  0.81777052     0.97100
C597        C  0.70980418  0.42801898  0.93071504     0.93500
Al598      Al  0.73351788  0.36737874  0.87428561     1.55600
O599        O  0.57999692  0.32223820  0.91017355    -0.78200
C600        C  0.71070842  0.28380057  0.81714396     0.97700
C601        C  0.71565422  0.42764119  0.81661196     0.92500
O602        O  0.67689437  0.41927212  0.83660418    -0.83600
O603        O  0.83370913  0.09597439  0.67392009    -0.83000
C604        C  0.79116825  0.21821296  0.56744950     0.96300
O605        O  0.76017427  0.18018866  0.58761263    -0.72100
O606        O  0.76189558  0.09788615  0.57369249    -0.75700
Al607      Al  0.76601870  0.13372493  0.62356914     1.49000
C608        C  0.78254823  0.07206145  0.56697324     0.91600
O609        O  0.90135279  0.16338830  0.57453635    -0.81900
O610        O  0.90113320  0.23465602  0.67591111    -0.75500
Al611      Al  0.86567773  0.13184162  0.62438300     1.90100
O612        O  0.92098905  0.23960691  0.59067911    -0.74600
O613        O  0.82124893  0.24058606  0.66132568    -0.74400
O614        O  0.83702980  0.23916296  0.57583777    -0.80100
O615        O  0.76056164  0.16482883  0.67318590    -0.78300
O616        O  0.83278499  0.16603753  0.62460046    -1.14400
O617        O  0.75780919  0.08037057  0.65942866    -0.73600
C618        C  0.78742396  0.07180386  0.68081859     0.97100
C619        C  0.92777567  0.20944169  0.56850203     0.93500
Al620      Al  0.86700617  0.23258281  0.62578786     1.55600
O621        O  0.82005509  0.07936794  0.58848906    -0.78200
C622        C  0.78284160  0.21050629  0.68158033     0.97700
C623        C  0.92649159  0.21349032  0.68252669     0.92500
O624        O  0.91917740  0.17647986  0.66048989    -0.83600
C625        C  0.53874321  0.26868278  0.96900025    -0.07300
C626        C  0.52295033  0.22083779  0.98535879    -0.18500
C627        C  0.98839992  0.20116350  0.51848547     0.09900
C628        C  0.96682554  0.22885166  0.53503286    -0.07300
C629        C  0.98303879  0.27691142  0.51906666    -0.18500
C630        C  0.51920050  0.29741650  0.98720497     0.09900
S631        S  0.97555316  0.14151866  0.53904148    -0.33500
S632        S  0.54017494  0.36120999  0.97306740    -0.33500
H633        H  0.59086915  0.37525197  0.97765223     0.27900
H634        H  0.97955227  0.15605795  0.58171101     0.27900
H635        H  0.53803525  0.19846294  0.97257196     0.18500
H636        H  0.96779643  0.29917144  0.53180764     0.18500
C637        C  0.96480403  0.23256331  0.71656464    -0.07300
C638        C  0.96169044  0.26326119  0.74791851    -0.18500
C639        C  0.49575785  0.28174170  0.78138676     0.09900
C640        C  0.53390685  0.26916239  0.78418176    -0.07300
C641        C  0.53720109  0.23845219  0.75328104    -0.18500
C642        C  0.00417283  0.22125092  0.71895578     0.09900
S643        S  0.98772700  0.32003133  0.82014587    -0.33500
S644        S  0.51703435  0.18854605  0.67804024    -0.33500
H645        H  0.01180798  0.21625678  0.64488785     0.27900
H646        H  0.50155720  0.30119176  0.85512756     0.27900
H647        H  0.93203443  0.27256978  0.74679343     0.18500
H648        H  0.56725527  0.22969673  0.75487271     0.18500
C649        C  0.76799409  0.03361854  0.71476190    -0.07300
C650        C  0.80048271  0.03761876  0.74779123    -0.18500
C651        C  0.78411924  0.00429943  0.78181782     0.09900
C652        C  0.73428125  0.46533383  0.78286007    -0.07300
C653        C  0.70154843  0.46129918  0.75030898    -0.18500
C654        C  0.71791296  0.49423705  0.71595715     0.09900
S655        S  0.82791293  0.01500361  0.82392961    -0.33500
S656        S  0.67352482  0.48184131  0.67396934    -0.33500
H657        H  0.70754367  0.98912871  0.64128631     0.27900
H658        H  0.79255238  0.50006110  0.85675717     0.27900
H659        H  0.83869630  0.06776654  0.74779719     0.18500
H660        H  0.66335818  0.43108147  0.75088808     0.18500
C661        C  0.72813932  0.46536223  0.96483520    -0.07300
C662        C  0.75927181  0.46266486  0.99587695    -0.18500
C663        C  0.77564157  0.99511181  0.53046846     0.09900
C664        C  0.76292978  0.03342293  0.53322801    -0.07300
C665        C  0.73139643  0.03570766  0.50200185    -0.18500
C666        C  0.71396694  0.50229265  0.96806133     0.09900
S667        S  0.80985530  0.98310306  0.57087670    -0.33500
S668        S  0.67555678  0.51013260  0.92898959    -0.33500
H669        H  0.69570748  0.49783860  0.89408466     0.27900
H670        H  0.78278037  0.98806587  0.60462620     0.27900
H671        H  0.76928209  0.43359762  0.99406419     0.18500
H672        H  0.72103358  0.06450990  0.50337155     0.18500
C673        C  0.77300984  0.23745112  0.53311905    -0.07300
C674        C  0.73794452  0.20321567  0.00486394    -0.18500
C675        C  0.72051607  0.21878293  0.97044133     0.09900
C676        C  0.73708309  0.27020497  0.96468697    -0.07300
C677        C  0.77238430  0.30438763  0.49325404    -0.18500
C678        C  0.79018861  0.28863906  0.52735983     0.09900
S679        S  0.67879927  0.17073273  0.93475759    -0.33500
S680        S  0.83254059  0.33547081  0.56362089    -0.33500
H681        H  0.81216388  0.30641574  0.60026890     0.27900
H682        H  0.70592563  0.19574126  0.89829510     0.27900
H683        H  0.72513195  0.16385806  0.00889644     0.18500
H684        H  0.78539015  0.34380661  0.48981164     0.18500
C685        C  0.72960018  0.26390166  0.78349430    -0.07300
C686        C  0.69836752  0.23930856  0.74887858    -0.18500
C687        C  0.71501530  0.22214050  0.71501051     0.09900
C688        C  0.76392085  0.22926496  0.71557108    -0.07300
C689        C  0.79512573  0.25341040  0.75007733    -0.18500
C690        C  0.77822255  0.26965612  0.78442771     0.09900
S691        S  0.67286038  0.19317806  0.67124138    -0.33500
S692        S  0.81940625  0.29420589  0.82942337    -0.33500
H693        H  0.78142786  0.27010735  0.85976526     0.27900
H694        H  0.70986629  0.21281676  0.63969054     0.27900
H695        H  0.66104954  0.23451357  0.74759595     0.18500
H696        H  0.83237173  0.25793624  0.75098729     0.18500
O697        O  0.59627850  0.83496670  0.32406736    -0.83000
C698        C  0.71751866  0.78953450  0.43084974     0.96300
O699        O  0.68000341  0.76014480  0.40955121    -0.72100
O700        O  0.59962597  0.76492330  0.42534633    -0.75700
Al701      Al  0.63378136  0.76776451  0.37475177     1.49000
C702        C  0.57493280  0.78657283  0.43320460     0.91600
O703        O  0.66396761  0.90456406  0.42226280    -0.81900
O704        O  0.73843529  0.90422617  0.32497119    -0.75500
Al705      Al  0.63237262  0.86732007  0.37330902     1.90100
O706        O  0.74037821  0.91968652  0.41072705    -0.74600
O707        O  0.74081566  0.82174013  0.33793021    -0.74400
O708        O  0.73824000  0.83552695  0.42383449    -0.80100
O709        O  0.66452660  0.76282397  0.32454172    -0.78300
O710        O  0.66667864  0.83432505  0.37399147    -1.14400
O711        O  0.57946559  0.75924998  0.33982620    -0.73600
C712        C  0.57185161  0.78890178  0.31777058     0.97100
C713        C  0.70980421  0.92801902  0.43071500     0.93500
Al714      Al  0.73351793  0.86737878  0.37428561     1.55600
O715        O  0.57999686  0.82223821  0.41017360    -0.78200
C716        C  0.71070839  0.78380054  0.31714399     0.97700
C717        C  0.71565427  0.92764123  0.31661203     0.92500
O718        O  0.67689435  0.91927213  0.33660420    -0.83600
O719        O  0.83370904  0.59597437  0.17392021    -0.83000
C720        C  0.79116824  0.71821294  0.06744951     0.96300
O721        O  0.76017424  0.68018872  0.08761264    -0.72100
O722        O  0.76189559  0.59788621  0.07369253    -0.75700
Al723      Al  0.76601860  0.63372493  0.12356917     1.49000
C724        C  0.78254821  0.57206143  0.06697332     0.91600
O725        O  0.90135279  0.66338828  0.07453636    -0.81900
O726        O  0.90113326  0.73465603  0.17591113    -0.75500
Al727      Al  0.86567765  0.63184168  0.12438307     1.90100
O728        O  0.92098905  0.73960688  0.09067908    -0.74600
O729        O  0.82124895  0.74058611  0.16132574    -0.74400
O730        O  0.83702984  0.73916297  0.07583776    -0.80100
O731        O  0.76056162  0.66482886  0.17318592    -0.78300
O732        O  0.83278487  0.66603759  0.12460048    -1.14400
O733        O  0.75780911  0.58037058  0.15942873    -0.73600
C734        C  0.78742383  0.57180381  0.18081866     0.97100
C735        C  0.92777569  0.70944167  0.06850200     0.93500
Al736      Al  0.86700616  0.73258286  0.12578787     1.55600
O737        O  0.82005504  0.57936795  0.08848915    -0.78200
C738        C  0.78284159  0.71050631  0.18158036     0.97700
C739        C  0.92649164  0.71349043  0.18252671     0.92500
O740        O  0.91917735  0.67647989  0.16048993    -0.83600
C741        C  0.53874321  0.76868298  0.46900039    -0.07300
C742        C  0.52295046  0.72083761  0.48535871    -0.18500
C743        C  0.98840006  0.70116343  0.01848543     0.09900
C744        C  0.96682559  0.72885162  0.03503279    -0.07300
C745        C  0.98303882  0.77691139  0.01906659    -0.18500
C746        C  0.51920039  0.79741656  0.48720497     0.09900
S747        S  0.97555313  0.64151862  0.03904148    -0.33500
S748        S  0.54017489  0.86121004  0.47306742    -0.33500
H749        H  0.59086908  0.87525194  0.47765228     0.27900
H750        H  0.97955222  0.65605793  0.08171099     0.27900
H751        H  0.53803453  0.69846467  0.47257301     0.18500
H752        H  0.96779654  0.79917123  0.03180746     0.18500
C753        C  0.96480424  0.73256318  0.21656463    -0.07300
C754        C  0.96169004  0.76326126  0.24791853    -0.18500
C755        C  0.49575792  0.78174162  0.28138680     0.09900
C756        C  0.53390689  0.76916230  0.28418173    -0.07300
C757        C  0.53720106  0.73845206  0.25328101    -0.18500
C758        C  0.00417285  0.72125081  0.21895567     0.09900
S759        S  0.98772696  0.82003124  0.32014589    -0.33500
S760        S  0.51703426  0.68854608  0.17804015    -0.33500
H761        H  0.01180784  0.71625704  0.14488758     0.27900
H762        H  0.50155724  0.80119154  0.35512757     0.27900
H763        H  0.93203792  0.77256884  0.24679356     0.18500
H764        H  0.56725534  0.72969654  0.25487265     0.18500
C765        C  0.76799389  0.53361842  0.21476192    -0.07300
C766        C  0.80048250  0.53761861  0.24779127    -0.18500
C767        C  0.78411901  0.50429926  0.28181784     0.09900
C768        C  0.73428111  0.96533359  0.28286007    -0.07300
C769        C  0.70154868  0.96129938  0.25030904    -0.18500
C770        C  0.71791277  0.99423683  0.21595720     0.09900
S771        S  0.82791274  0.51500348  0.32392969    -0.33500
S772        S  0.67352474  0.98184123  0.17396936    -0.33500
H773        H  0.70754328  0.48912897  0.14128615     0.27900
H774        H  0.79255275  0.00006115  0.35675712     0.27900
H775        H  0.83869567  0.56776608  0.24779724     0.18500
H776        H  0.66335528  0.93107950  0.25088828     0.18500
C777        C  0.72813923  0.96536238  0.46483511    -0.07300
C778        C  0.75927192  0.96266463  0.49587679    -0.18500
C779        C  0.77564162  0.49511159  0.03046855     0.09900
C780        C  0.76292976  0.53342280  0.03322808    -0.07300
C781        C  0.73139643  0.53570752  0.00200194    -0.18500
C782        C  0.71396690  0.00229267  0.46806128     0.09900
S783        S  0.80985552  0.48310318  0.07087673    -0.33500
S784        S  0.67555649  0.01013253  0.42898978    -0.33500
H785        H  0.69570682  0.99783860  0.39408454     0.27900
H786        H  0.78278057  0.48806582  0.10462628     0.27900
H787        H  0.76928146  0.93360020  0.49406409     0.18500
H788        H  0.72103355  0.56450976  0.00337179     0.18500
C789        C  0.77300981  0.73745107  0.03311911    -0.07300
C790        C  0.73794455  0.70321540  0.50486402    -0.18500
C791        C  0.72051624  0.71878317  0.47044134     0.09900
C792        C  0.73708316  0.77020503  0.46468700    -0.07300
C793        C  0.77238437  0.80438803  0.99325403    -0.18500
C794        C  0.79018850  0.78863870  0.02735990     0.09900
S795        S  0.67879929  0.67073274  0.43475772    -0.33500
S796        S  0.83254032  0.83547053  0.06362099    -0.33500
H797        H  0.81216335  0.80641509  0.10026878     0.27900
H798        H  0.70592555  0.69574117  0.39829515     0.27900
H799        H  0.72513364  0.66386131  0.50889603     0.18500
H800        H  0.78538857  0.84380251  0.98981218     0.18500
C801        C  0.72960020  0.76390170  0.28349430    -0.07300
C802        C  0.69836743  0.73930859  0.24887859    -0.18500
C803        C  0.71501529  0.72214055  0.21501053     0.09900
C804        C  0.76392080  0.72926493  0.21557113    -0.07300
C805        C  0.79512570  0.75341036  0.25007740    -0.18500
C806        C  0.77822249  0.76965607  0.28442778     0.09900
S807        S  0.67286013  0.69317791  0.17124160    -0.33500
S808        S  0.81940600  0.79420569  0.32942359    -0.33500
H809        H  0.78142777  0.77010717  0.35976562     0.27900
H810        H  0.70986576  0.71281639  0.13969052     0.27900
H811        H  0.66105029  0.73451433  0.24759573     0.18500
H812        H  0.83237165  0.75793616  0.25098735     0.18500
O813        O  0.59627850  0.83496671  0.82406737    -0.83000
C814        C  0.71751856  0.78953457  0.93084980     0.96300
O815        O  0.68000342  0.76014478  0.90955112    -0.72100
O816        O  0.59962591  0.76492333  0.92534626    -0.75700
Al817      Al  0.63378139  0.76776461  0.87475171     1.49000
C818        C  0.57493276  0.78657284  0.93320455     0.91600
O819        O  0.66396753  0.90456407  0.92226273    -0.81900
O820        O  0.73843525  0.90422610  0.82497112    -0.75500
Al821      Al  0.63237262  0.86732006  0.87330898     1.90100
O822        O  0.74037803  0.91968647  0.91072701    -0.74600
O823        O  0.74081581  0.82174025  0.83793023    -0.74400
O824        O  0.73823993  0.83552696  0.92383447    -0.80100
O825        O  0.66452679  0.76282407  0.82454165    -0.78300
O826        O  0.66667862  0.83432510  0.87399144    -1.14400
O827        O  0.57946573  0.75925012  0.83982621    -0.73600
C828        C  0.57185181  0.78890191  0.81777049     0.97100
C829        C  0.70980408  0.92801888  0.93071506     0.93500
Al830      Al  0.73351789  0.86737881  0.87428560     1.55600
O831        O  0.57999690  0.82223819  0.91017351    -0.78200
C832        C  0.71070860  0.78380074  0.81714391     0.97700
C833        C  0.71565433  0.92764126  0.81661203     0.92500
O834        O  0.67689443  0.91927216  0.83660421    -0.83600
O835        O  0.83370908  0.59597441  0.67392009    -0.83000
C836        C  0.79116833  0.71821294  0.56744949     0.96300
O837        O  0.76017425  0.68018872  0.58761271    -0.72100
O838        O  0.76189564  0.59788622  0.57369241    -0.75700
Al839      Al  0.76601870  0.63372492  0.62356914     1.49000
C840        C  0.78254821  0.57206149  0.56697327     0.91600
O841        O  0.90135278  0.66338826  0.57453630    -0.81900
O842        O  0.90113324  0.73465593  0.67591124    -0.75500
Al843      Al  0.86567766  0.63184161  0.62438300     1.90100
O844        O  0.92098922  0.73960699  0.59067928    -0.74600
O845        O  0.82124896  0.74058602  0.66132585    -0.74400
O846        O  0.83702990  0.73916301  0.57583781    -0.80100
O847        O  0.76056154  0.66482884  0.67318587    -0.78300
O848        O  0.83278497  0.66603751  0.62460052    -1.14400
O849        O  0.75780921  0.58037062  0.65942869    -0.73600
C850        C  0.78742389  0.57180393  0.68081862     0.97100
C851        C  0.92777570  0.70944171  0.56850206     0.93500
Al852      Al  0.86700621  0.73258281  0.62578796     1.55600
O853        O  0.82005503  0.57936798  0.58848922    -0.78200
C854        C  0.78284155  0.71050628  0.68158038     0.97700
C855        C  0.92649157  0.71349024  0.68252672     0.92500
O856        O  0.91917740  0.67647986  0.66048976    -0.83600
C857        C  0.53874327  0.76868292  0.96900044    -0.07300
C858        C  0.52295051  0.72083768  0.98535879    -0.18500
C859        C  0.98840003  0.70116343  0.51848545     0.09900
C860        C  0.96682550  0.72885159  0.53503282    -0.07300
C861        C  0.98303889  0.77691127  0.51906658    -0.18500
C862        C  0.51920038  0.79741653  0.98720503     0.09900
S863        S  0.97555318  0.64151862  0.53904147    -0.33500
S864        S  0.54017522  0.86120998  0.97306747    -0.33500
H865        H  0.59086928  0.87525145  0.97765242     0.27900
H866        H  0.97955206  0.65605782  0.58171100     0.27900
H867        H  0.53803472  0.69846450  0.97257284     0.18500
H868        H  0.96779559  0.79917146  0.53180756     0.18500
C869        C  0.96480415  0.73256332  0.71656454    -0.07300
C870        C  0.96169027  0.76326106  0.74791851    -0.18500
C871        C  0.49575792  0.78174161  0.78138684     0.09900
C872        C  0.53390711  0.76916233  0.78418178    -0.07300
C873        C  0.53720082  0.73845220  0.75328115    -0.18500
C874        C  0.00417280  0.72125080  0.71895584     0.09900
S875        S  0.98772673  0.82003123  0.82014572    -0.33500
S876        S  0.51703412  0.68854587  0.67804029    -0.33500
H877        H  0.01180807  0.71625670  0.64488790     0.27900
H878        H  0.50155723  0.80119161  0.85512760     0.27900
H879        H  0.93203514  0.77256910  0.74679353     0.18500
H880        H  0.56725844  0.72969587  0.75487290     0.18500
C881        C  0.76799434  0.53361873  0.71476189    -0.07300
C882        C  0.80048254  0.53761863  0.74779122    -0.18500
C883        C  0.78411943  0.50429953  0.78181772     0.09900
C884        C  0.73428129  0.96533369  0.78286006    -0.07300
C885        C  0.70154842  0.96129910  0.75030902    -0.18500
C886        C  0.71791293  0.99423689  0.71595716     0.09900
S887        S  0.82791292  0.51500345  0.82392953    -0.33500
S888        S  0.67352489  0.98184119  0.67396937    -0.33500
H889        H  0.70754354  0.48912890  0.64128621     0.27900
H890        H  0.79255225  0.00006089  0.85675716     0.27900
H891        H  0.83869914  0.56776837  0.74779706     0.18500
H892        H  0.66335803  0.93108116  0.75088802     0.18500
C893        C  0.72813916  0.96536232  0.96483514    -0.07300
C894        C  0.75927199  0.96266440  0.99587684    -0.18500
C895        C  0.77564157  0.49511152  0.53046857     0.09900
C896        C  0.76292994  0.53342274  0.53322806    -0.07300
C897        C  0.73139639  0.53570790  0.50200192    -0.18500
C898        C  0.71396699  0.00229260  0.96806119     0.09900
S899        S  0.80985556  0.48310314  0.57087665    -0.33500
S900        S  0.67555674  0.01013273  0.92898958    -0.33500
H901        H  0.69570713  0.99783846  0.89408457     0.27900
H902        H  0.78278070  0.48806576  0.60462628     0.27900
H903        H  0.76928140  0.93360040  0.99406424     0.18500
H904        H  0.72103433  0.56450730  0.50337150     0.18500
C905        C  0.77300997  0.73745107  0.53311898    -0.07300
C906        C  0.73794443  0.70321517  0.00486397    -0.18500
C907        C  0.72051613  0.71878318  0.97044126     0.09900
C908        C  0.73708310  0.77020474  0.96468689    -0.07300
C909        C  0.77238424  0.80438756  0.49325406    -0.18500
C910        C  0.79018858  0.78863902  0.52735982     0.09900
S911        S  0.67879937  0.67073277  0.93475752    -0.33500
S912        S  0.83254049  0.83547058  0.56362100    -0.33500
H913        H  0.81216346  0.80641521  0.60026881     0.27900
H914        H  0.70592588  0.69574140  0.89829510     0.27900
H915        H  0.72513346  0.66386221  0.00889593     0.18500
H916        H  0.78538976  0.84380715  0.48981194     0.18500
C917        C  0.72960059  0.76390180  0.78349433    -0.07300
C918        C  0.69836727  0.73930860  0.74887857    -0.18500
C919        C  0.71501563  0.72214054  0.71501053     0.09900
C920        C  0.76392096  0.72926500  0.71557112    -0.07300
C921        C  0.79512570  0.75341039  0.75007738    -0.18500
C922        C  0.77822279  0.76965628  0.78442774     0.09900
S923        S  0.67286048  0.69317799  0.67124148    -0.33500
S924        S  0.81940640  0.79420585  0.82942342    -0.33500
H925        H  0.78142807  0.77010759  0.85976541     0.27900
H926        H  0.70986635  0.71281675  0.63969059     0.27900
H927        H  0.66105377  0.73451465  0.74759585     0.18500
H928        H  0.83237289  0.75793684  0.75098714     0.18500
loop_ 
_geom_bond_atom_site_label_1 
_geom_bond_atom_site_label_2 
_geom_bond_distance 
_geom_bond_site_symmetry_2 
_ccdc_geom_bond_type 
O1           C16   1.257       .  A
O1           Al9   1.886       .  S
C2           O12   1.258       .  A
C2            O3   1.257       .  A
C2           C96   1.486       .  S
O3           Al5   1.900       .  S
O4            C6   1.260       .  A
O4           Al5   1.891       .  S
Al5          O13   1.891       .  S
Al5          O15   1.909       .  S
Al5          O14   1.791       .  S
C6           O19   1.262       .  A
C6           C45   1.489       .  S
O7           C17   1.257       .  A
O7           Al9   1.887       .  S
O8           C21   1.258       .  A
O8          Al18   1.887       .  S
Al9          O22   1.904       .  S
Al9          O19   1.918       .  S
Al9          O14   1.793       .  S
O10          C17   1.261       .  A
O10         Al18   1.911       .  S
O11          C20   1.264       .  A
O11         Al18   1.917       .  S
O12         Al18   1.888       .  S
O13          C20   1.261       .  A
O14         Al18   1.792       .  S
O15          C16   1.259       .  A
C16          C60   1.469       .  S
C17          C81   1.474       .  S
C20         C105   1.484       .  S
C21          O22   1.260       .  A
C21          C72   1.469       .  S
O23          C38   1.260       .  A
O23         Al31   1.887       .  S
C24          O34   1.258       .  A
C24          O25   1.261       .  A
C24          C93   1.470       .  S
O25         Al27   1.904       .  S
O26          C28   1.259       .  A
O26         Al27   1.895       .  S
Al27         O35   1.890       .  S
Al27         O37   1.908       .  S
Al27         O36   1.790       .  S
C28          O41   1.260       .  A
C28          C84   1.490       .  S
O29          C39   1.258       .  A
O29         Al31   1.891       .  S
O30          C43   1.257       .  A
O30         Al40   1.881       .  S
Al31         O44   1.919       .  S
Al31         O41   1.910       .  S
Al31         O36   1.787       .  S
O32          C39   1.264       .  A
O32         Al40   1.920       .  S
O33          C42   1.260       .  A
O33         Al40   1.911       .  S
O34         Al40   1.886       .  S
O35          C42   1.258       .  A
O36         Al40   1.791       .  S
O37          C38   1.261       .  A
C38          C69   1.482       .  S
C39          C48   1.487       .  S
C42         C108   1.471       .  S
C43          O44   1.262       .  A
C43          C57   1.486       .  S
C45          C46   1.406       .  A
C45          C50   1.417       .  A
C46         C627   1.399   1_455  A
C46          H55   1.084       .  S
C47          C48   1.417       .  A
C47         C626   1.399   1_554  A
C47          S51   1.803       .  S
C48          C49   1.405       .  A
C49         C630   1.399   1_554  A
C49          H56   1.084       .  S
C50         C629   1.399   1_455  A
C50          S52   1.801       .  S
S51          H54   1.407       .  S
S52          H53   1.406       .  S
C57          C58   1.408       .  A
C57          C62   1.419       .  A
C58         C523   1.397       .  A
C58          H67   1.084       .  S
C59          C60   1.409   1_655  A
C59         C522   1.397       .  A
C59         S527   1.804       .  S
C60          C61   1.400       .  A
C61         C526   1.399       .  A
C61          H68   1.085       .  S
C62         C525   1.399       .  A
C62         S528   1.802       .  S
S63         C523   1.804       .  S
S63         H530   1.406       .  S
S64         C526   1.802       .  S
S64         H529   1.408       .  S
H65         S528   1.408       .  S
H66         S527   1.406   1_455  S
C69          C70   1.406       .  A
C69         C306   1.419   1_545  A
C70          C71   1.397       .  A
C70          H79   1.083       .  S
C71         C304   1.410   1_545  A
C71          S75   1.803       .  S
C72          C73   1.400       .  A
C72         C303   1.410       .  A
C73          C74   1.398       .  A
C73          H80   1.084       .  S
C74         C301   1.419       .  A
C74          S76   1.803       .  S
S75         H310   1.406       .  S
S76         H309   1.408       .  S
H77         S308   1.408       .  S
H78         S307   1.406       .  S
C81          C82   1.400       .  A
C81          C86   1.412       .  A
C82         C431   1.399       .  A
C82          H91   1.085       .  S
C83          C84   1.421   1_565  A
C83         C430   1.399   1_554  A
C83          S87   1.803       .  S
C84          C85   1.408       .  A
C85         C434   1.400   1_554  A
C85          H92   1.084       .  S
C86         C433   1.400       .  A
C86          S88   1.803       .  S
S87          H90   1.408       .  S
S88          H89   1.407       .  S
C93          C98   1.411       .  A
C93         C210   1.399       .  A
C94          C95   1.396       .  A
C94         C209   1.399       .  A
C94         H103   1.085       .  S
C95          C96   1.421       .  A
C95          S99   1.803       .  S
C96         C213   1.408       .  A
C97          C98   1.397   1_556  A
C97         C212   1.408       .  A
C97         H104   1.084       .  S
C98         S100   1.803       .  S
S99         H102   1.408       .  S
S100        H101   1.407       .  S
C105        C106   1.406       .  A
C105        C110   1.418       .  A
C106        C107   1.399       .  A
C106        H115   1.084       .  S
C107        C108   1.410       .  A
C107        S111   1.803       .  S
C108        C109   1.400       .  A
C109        C110   1.400       .  A
C109        H116   1.085       .  S
C110        S112   1.804       .  S
S111        H114   1.406       .  S
S112        H113   1.408       .  S
O117        C132   1.257       .  A
O117       Al125   1.886       .  S
C118        O128   1.258       .  A
C118        O119   1.257       .  A
C118        C212   1.486       .  S
O119       Al121   1.900       .  S
O120        C122   1.260       .  A
O120       Al121   1.891       .  S
Al121       O129   1.891       .  S
Al121       O131   1.909       .  S
Al121       O130   1.791       .  S
C122        O135   1.262       .  A
C122        C161   1.489       .  S
O123        C133   1.257       .  A
O123       Al125   1.887       .  S
O124        C137   1.258       .  A
O124       Al134   1.887       .  S
Al125       O138   1.904       .  S
Al125       O135   1.918       .  S
Al125       O130   1.793       .  S
O126        C133   1.261       .  A
O126       Al134   1.911       .  S
O127        C136   1.264       .  A
O127       Al134   1.917       .  S
O128       Al134   1.888       .  S
O129        C136   1.261       .  A
O130       Al134   1.792       .  S
O131        C132   1.259       .  A
C132        C176   1.469       .  S
C133        C197   1.474       .  S
C136        C221   1.484       .  S
C137        O138   1.260       .  A
C137        C188   1.469       .  S
O139        C154   1.260       .  A
O139       Al147   1.887       .  S
C140        O150   1.258       .  A
C140        O141   1.261       .  A
C140        C209   1.470       .  S
O141       Al143   1.904       .  S
O142        C144   1.259       .  A
O142       Al143   1.895       .  S
Al143       O151   1.890       .  S
Al143       O153   1.908       .  S
Al143       O152   1.790       .  S
C144        O157   1.260       .  A
C144        C200   1.490       .  S
O145        C155   1.258       .  A
O145       Al147   1.891       .  S
O146        C159   1.257       .  A
O146       Al156   1.881       .  S
Al147       O160   1.919       .  S
Al147       O157   1.910       .  S
Al147       O152   1.787       .  S
O148        C155   1.264       .  A
O148       Al156   1.920       .  S
O149        C158   1.260       .  A
O149       Al156   1.911       .  S
O150       Al156   1.886       .  S
O151        C158   1.258       .  A
O152       Al156   1.791       .  S
O153        C154   1.261       .  A
C154        C185   1.482       .  S
C155        C164   1.487       .  S
C158        C224   1.471       .  S
C159        O160   1.262       .  A
C159        C173   1.486       .  S
C161        C162   1.406       .  A
C161        C166   1.417       .  A
C162        C511   1.399   1_456  A
C162        H171   1.084       .  S
C163        C510   1.399       .  A
C163        C164   1.417       .  A
C163        S167   1.803       .  S
C164        C165   1.405       .  A
C165        C514   1.399       .  A
C165        H172   1.084       .  S
C166        C513   1.399   1_456  A
C166        S168   1.801       .  S
S167        H170   1.407       .  S
S168        H169   1.406       .  S
C173        C174   1.408       .  A
C173        C178   1.419       .  A
C174        C639   1.397       .  A
C174        H183   1.084       .  S
C175        C638   1.397       .  A
C175        C176   1.409   1_655  A
C175        S643   1.804       .  S
C176        C177   1.400       .  A
C177        C642   1.399       .  A
C177        H184   1.085       .  S
C178        C641   1.399       .  A
C178        S644   1.802       .  S
S179        C639   1.804       .  S
S179        H646   1.406       .  S
S180        C642   1.802       .  S
S180        H645   1.408       .  S
H181        S644   1.408       .  S
H182        S643   1.406   1_455  S
C185        C186   1.406       .  A
C185        C422   1.419   1_545  A
C186        C187   1.397       .  A
C186        H195   1.083       .  S
C187        C420   1.410   1_545  A
C187        S191   1.803       .  S
C188        C419   1.410       .  A
C188        C189   1.400       .  A
C189        C190   1.398       .  A
C189        H196   1.084       .  S
C190        C417   1.419       .  A
C190        S192   1.803       .  S
S191        H426   1.406       .  S
S192        H425   1.408       .  S
H193        S424   1.408       .  S
H194        S423   1.406       .  S
C197        C198   1.400       .  A
C197        C202   1.412       .  A
C198        C315   1.399   1_556  A
C198        H207   1.085       .  S
C199        C314   1.399       .  A
C199        C200   1.421   1_565  A
C199        S203   1.803       .  S
C200        C201   1.408       .  A
C201        C318   1.400       .  A
C201        H208   1.084       .  S
C202        C317   1.400   1_556  A
C202        S204   1.803       .  S
S203        H206   1.408       .  S
S204        H205   1.407       .  S
C209        C214   1.411       .  A
C210        C211   1.396   1_554  A
C210        H219   1.085       .  S
C211        C212   1.421       .  A
C211        S215   1.803       .  S
C213        C214   1.397       .  A
C213        H220   1.084       .  S
C214        S216   1.803       .  S
S215        H218   1.408       .  S
S216        H217   1.407       .  S
C221        C222   1.406       .  A
C221        C226   1.418       .  A
C222        C223   1.399       .  A
C222        H231   1.084       .  S
C223        C224   1.410       .  A
C223        S227   1.803       .  S
C224        C225   1.400       .  A
C225        C226   1.400       .  A
C225        H232   1.085       .  S
C226        S228   1.804       .  S
S227        H230   1.406       .  S
S228        H229   1.408       .  S
O233        C248   1.257       .  A
O233       Al241   1.886       .  S
C234        O244   1.258       .  A
C234        O235   1.257       .  A
C234        C328   1.486       .  S
O235       Al237   1.900       .  S
O236        C238   1.260       .  A
O236       Al237   1.891       .  S
Al237       O245   1.891       .  S
Al237       O247   1.909       .  S
Al237       O246   1.791       .  S
C238        O251   1.262       .  A
C238        C277   1.489       .  S
O239        C249   1.257       .  A
O239       Al241   1.887       .  S
O240        C253   1.258       .  A
O240       Al250   1.887       .  S
Al241       O254   1.904       .  S
Al241       O251   1.918       .  S
Al241       O246   1.793       .  S
O242        C249   1.261       .  A
O242       Al250   1.911       .  S
O243        C252   1.264       .  A
O243       Al250   1.917       .  S
O244       Al250   1.888       .  S
O245        C252   1.261       .  A
O246       Al250   1.792       .  S
O247        C248   1.259       .  A
C248        C292   1.469       .  S
C249        C313   1.474       .  S
C252        C337   1.484       .  S
C253        O254   1.260       .  A
C253        C304   1.469       .  S
O255        C270   1.260       .  A
O255       Al263   1.887       .  S
C256        O266   1.258       .  A
C256        O257   1.261       .  A
C256        C325   1.470       .  S
O257       Al259   1.904       .  S
O258        C260   1.259       .  A
O258       Al259   1.895       .  S
Al259       O267   1.890       .  S
Al259       O269   1.908       .  S
Al259       O268   1.790       .  S
C260        O273   1.260       .  A
C260        C316   1.490       .  S
O261        C271   1.258       .  A
O261       Al263   1.891       .  S
O262        C275   1.257       .  A
O262       Al272   1.881       .  S
Al263       O276   1.919       .  S
Al263       O273   1.910       .  S
Al263       O268   1.787       .  S
O264        C271   1.264       .  A
O264       Al272   1.920       .  S
O265        C274   1.260       .  A
O265       Al272   1.911       .  S
O266       Al272   1.886       .  S
O267        C274   1.258       .  A
O268       Al272   1.791       .  S
O269        C270   1.261       .  A
C270        C301   1.482       .  S
C271        C280   1.487       .  S
C274        C340   1.471       .  S
C275        O276   1.262       .  A
C275        C289   1.486       .  S
C277        C278   1.406       .  A
C277        C282   1.417       .  A
C278        C859   1.399   1_455  A
C278        H287   1.084       .  S
C279        C858   1.399   1_554  A
C279        C280   1.417       .  A
C279        S283   1.803       .  S
C280        C281   1.405       .  A
C281        C862   1.399   1_554  A
C281        H288   1.084       .  S
C282        C861   1.399   1_455  A
C282        S284   1.801       .  S
S283        H286   1.407       .  S
S284        H285   1.406       .  S
C289        C290   1.408       .  A
C289        C294   1.419       .  A
C290        C755   1.397       .  A
C290        H299   1.084       .  S
C291        C754   1.397       .  A
C291        C292   1.409   1_655  A
C291        S759   1.804       .  S
C292        C293   1.400       .  A
C293        C758   1.399       .  A
C293        H300   1.085       .  S
C294        C757   1.399       .  A
C294        S760   1.802       .  S
S295        C755   1.804       .  S
S295        H762   1.406       .  S
S296        C758   1.802       .  S
S296        H761   1.408       .  S
H297        S760   1.408       .  S
H298        S759   1.406   1_455  S
C301        C302   1.406       .  A
C302        C303   1.397       .  A
C302        H311   1.083       .  S
C303        S307   1.803       .  S
C304        C305   1.400       .  A
C305        C306   1.398       .  A
C305        H312   1.084       .  S
C306        S308   1.803       .  S
C313        C314   1.400       .  A
C313        C318   1.412   1_565  A
C314        H323   1.085       .  S
C315        C316   1.421       .  A
C315        S319   1.803       .  S
C316        C317   1.408       .  A
C317        H324   1.084       .  S
C318        S320   1.803       .  S
S319        H322   1.408       .  S
S320        H321   1.407   1_545  S
C325        C442   1.399       .  A
C325        C330   1.411       .  A
C326        C441   1.399       .  A
C326        C327   1.396       .  A
C326        H335   1.085       .  S
C327        C328   1.421       .  A
C327        S331   1.803       .  S
C328        C445   1.408       .  A
C329        C444   1.408       .  A
C329        C330   1.397   1_556  A
C329        H336   1.084       .  S
C330        S332   1.803       .  S
S331        H334   1.408       .  S
S332        H333   1.407       .  S
C337        C338   1.406       .  A
C337        C342   1.418       .  A
C338        C339   1.399       .  A
C338        H347   1.084       .  S
C339        C340   1.410       .  A
C339        S343   1.803       .  S
C340        C341   1.400       .  A
C341        C342   1.400       .  A
C341        H348   1.085       .  S
C342        S344   1.804       .  S
S343        H346   1.406       .  S
S344        H345   1.408       .  S
O349        C364   1.257       .  A
O349       Al357   1.886       .  S
C350        O360   1.258       .  A
C350        O351   1.257       .  A
C350        C444   1.486       .  S
O351       Al353   1.900       .  S
O352        C354   1.260       .  A
O352       Al353   1.891       .  S
Al353       O361   1.891       .  S
Al353       O363   1.909       .  S
Al353       O362   1.791       .  S
C354        O367   1.262       .  A
C354        C393   1.489       .  S
O355        C365   1.257       .  A
O355       Al357   1.887       .  S
O356        C369   1.258       .  A
O356       Al366   1.887       .  S
Al357       O370   1.904       .  S
Al357       O367   1.918       .  S
Al357       O362   1.793       .  S
O358        C365   1.261       .  A
O358       Al366   1.911       .  S
O359        C368   1.264       .  A
O359       Al366   1.917       .  S
O360       Al366   1.888       .  S
O361        C368   1.261       .  A
O362       Al366   1.792       .  S
O363        C364   1.259       .  A
C364        C408   1.469       .  S
C365        C429   1.474       .  S
C368        C453   1.484       .  S
C369        O370   1.260       .  A
C369        C420   1.469       .  S
O371        C386   1.260       .  A
O371       Al379   1.887       .  S
C372        O382   1.258       .  A
C372        O373   1.261       .  A
C372        C441   1.470       .  S
O373       Al375   1.904       .  S
O374        C376   1.259       .  A
O374       Al375   1.895       .  S
Al375       O383   1.890       .  S
Al375       O385   1.908       .  S
Al375       O384   1.790       .  S
C376        O389   1.260       .  A
C376        C432   1.490       .  S
O377        C387   1.258       .  A
O377       Al379   1.891       .  S
O378        C391   1.257       .  A
O378       Al388   1.881       .  S
Al379       O392   1.919       .  S
Al379       O389   1.910       .  S
Al379       O384   1.787       .  S
O380        C387   1.264       .  A
O380       Al388   1.920       .  S
O381        C390   1.260       .  A
O381       Al388   1.911       .  S
O382       Al388   1.886       .  S
O383        C390   1.258       .  A
O384       Al388   1.791       .  S
O385        C386   1.261       .  A
C386        C417   1.482       .  S
C387        C396   1.487       .  S
C390        C456   1.471       .  S
C391        O392   1.262       .  A
C391        C405   1.486       .  S
C393        C394   1.406       .  A
C393        C398   1.417       .  A
C394        C743   1.399   1_456  A
C394        H403   1.084       .  S
C395        C742   1.399       .  A
C395        C396   1.417       .  A
C395        S399   1.803       .  S
C396        C397   1.405       .  A
C397        C746   1.399       .  A
C397        H404   1.084       .  S
C398        C745   1.399   1_456  A
C398        S400   1.801       .  S
S399        H402   1.407       .  S
S400        H401   1.406       .  S
C405        C406   1.408       .  A
C405        C410   1.419       .  A
C406        C871   1.397       .  A
C406        H415   1.084       .  S
C407        C870   1.397       .  A
C407        C408   1.409   1_655  A
C407        S875   1.804       .  S
C408        C409   1.400       .  A
C409        C874   1.399       .  A
C409        H416   1.085       .  S
C410        C873   1.399       .  A
C410        S876   1.802       .  S
S411        C871   1.804       .  S
S411        H878   1.406       .  S
S412        C874   1.802       .  S
S412        H877   1.408       .  S
H413        S876   1.408       .  S
H414        S875   1.406   1_455  S
C417        C418   1.406       .  A
C418        C419   1.397       .  A
C418        H427   1.083       .  S
C419        S423   1.803       .  S
C420        C421   1.400       .  A
C421        C422   1.398       .  A
C421        H428   1.084       .  S
C422        S424   1.803       .  S
C429        C430   1.400       .  A
C429        C434   1.412   1_565  A
C430        H439   1.085       .  S
C431        C432   1.421       .  A
C431        S435   1.803       .  S
C432        C433   1.408       .  A
C433        H440   1.084       .  S
C434        S436   1.803       .  S
S435        H438   1.408       .  S
S436        H437   1.407   1_545  S
C441        C446   1.411       .  A
C442        C443   1.396   1_554  A
C442        H451   1.085       .  S
C443        C444   1.421       .  A
C443        S447   1.803       .  S
C445        C446   1.397       .  A
C445        H452   1.084       .  S
C446        S448   1.803       .  S
S447        H450   1.408       .  S
S448        H449   1.407       .  S
C453        C454   1.406       .  A
C453        C458   1.418       .  A
C454        C455   1.399       .  A
C454        H463   1.084       .  S
C455        C456   1.410       .  A
C455        S459   1.803       .  S
C456        C457   1.400       .  A
C457        C458   1.400       .  A
C457        H464   1.085       .  S
C458        S460   1.804       .  S
S459        H462   1.406       .  S
S460        H461   1.408       .  S
O465        C480   1.257       .  A
O465       Al473   1.886       .  S
C466        O476   1.258       .  A
C466        O467   1.257       .  A
C466        C560   1.486       .  S
O467       Al469   1.900       .  S
O468        C470   1.260       .  A
O468       Al469   1.891       .  S
Al469       O477   1.891       .  S
Al469       O479   1.909       .  S
Al469       O478   1.791       .  S
C470        O483   1.262       .  A
C470        C509   1.489       .  S
O471        C481   1.257       .  A
O471       Al473   1.887       .  S
O472        C485   1.258       .  A
O472       Al482   1.887       .  S
Al473       O486   1.904       .  S
Al473       O483   1.918       .  S
Al473       O478   1.793       .  S
O474        C481   1.261       .  A
O474       Al482   1.911       .  S
O475        C484   1.264       .  A
O475       Al482   1.917       .  S
O476       Al482   1.888       .  S
O477        C484   1.261       .  A
O478       Al482   1.792       .  S
O479        C480   1.259       .  A
C480        C524   1.469       .  S
C481        C545   1.474       .  S
C484        C569   1.484       .  S
C485        O486   1.260       .  A
C485        C536   1.469       .  S
O487        C502   1.260       .  A
O487       Al495   1.887       .  S
C488        O498   1.258       .  A
C488        O489   1.261       .  A
C488        C557   1.470       .  S
O489       Al491   1.904       .  S
O490        C492   1.259       .  A
O490       Al491   1.895       .  S
Al491       O499   1.890       .  S
Al491       O501   1.908       .  S
Al491       O500   1.790       .  S
C492        O505   1.260       .  A
C492        C548   1.490       .  S
O493        C503   1.258       .  A
O493       Al495   1.891       .  S
O494        C507   1.257       .  A
O494       Al504   1.881       .  S
Al495       O508   1.919       .  S
Al495       O505   1.910       .  S
Al495       O500   1.787       .  S
O496        C503   1.264       .  A
O496       Al504   1.920       .  S
O497        C506   1.260       .  A
O497       Al504   1.911       .  S
O498       Al504   1.886       .  S
O499        C506   1.258       .  A
O500       Al504   1.791       .  S
O501        C502   1.261       .  A
C502        C533   1.482       .  S
C503        C512   1.487       .  S
C506        C572   1.471       .  S
C507        O508   1.262       .  A
C507        C521   1.486       .  S
C509        C510   1.406       .  A
C509        C514   1.417       .  A
C510        H519   1.084       .  S
C511        C512   1.417       .  A
C511        S515   1.803       .  S
C512        C513   1.405       .  A
C513        H520   1.084       .  S
C514        S516   1.801       .  S
S515        H518   1.407       .  S
S516        H517   1.406       .  S
C521        C522   1.408       .  A
C521        C526   1.419   1_655  A
C522        H531   1.084       .  S
C523        C524   1.409       .  A
C524        C525   1.400       .  A
C525        H532   1.085       .  S
C533        C534   1.406       .  A
C533        C770   1.419   1_545  A
C534        C535   1.397       .  A
C534        H543   1.083       .  S
C535        C768   1.410   1_545  A
C535        S539   1.803       .  S
C536        C767   1.410       .  A
C536        C537   1.400       .  A
C537        C538   1.398       .  A
C537        H544   1.084       .  S
C538        C765   1.419       .  A
C538        S540   1.803       .  S
S539        H774   1.406       .  S
S540        H773   1.408       .  S
H541        S772   1.408       .  S
H542        S771   1.406       .  S
C545        C546   1.400       .  A
C545        C550   1.412       .  A
C546        C895   1.399       .  A
C546        H555   1.085       .  S
C547        C894   1.399   1_554  A
C547        C548   1.421   1_565  A
C547        S551   1.803       .  S
C548        C549   1.408       .  A
C549        C898   1.400   1_554  A
C549        H556   1.084       .  S
C550        C897   1.400       .  A
C550        S552   1.803       .  S
S551        H554   1.408       .  S
S552        H553   1.407       .  S
C557        C674   1.399       .  A
C557        C562   1.411       .  A
C558        C673   1.399       .  A
C558        C559   1.396       .  A
C558        H567   1.085       .  S
C559        C560   1.421       .  A
C559        S563   1.803       .  S
C560        C677   1.408       .  A
C561        C676   1.408       .  A
C561        C562   1.397   1_556  A
C561        H568   1.084       .  S
C562        S564   1.803       .  S
S563        H566   1.408       .  S
S564        H565   1.407       .  S
C569        C570   1.406       .  A
C569        C574   1.418       .  A
C570        C571   1.399       .  A
C570        H579   1.084       .  S
C571        C572   1.410       .  A
C571        S575   1.803       .  S
C572        C573   1.400       .  A
C573        C574   1.400       .  A
C573        H580   1.085       .  S
C574        S576   1.804       .  S
S575        H578   1.406       .  S
S576        H577   1.408       .  S
O581        C596   1.257       .  A
O581       Al589   1.886       .  S
C582        O592   1.258       .  A
C582        O583   1.257       .  A
C582        C676   1.486       .  S
O583       Al585   1.900       .  S
O584        C586   1.260       .  A
O584       Al585   1.891       .  S
Al585       O593   1.891       .  S
Al585       O595   1.909       .  S
Al585       O594   1.791       .  S
C586        O599   1.262       .  A
C586        C625   1.489       .  S
O587        C597   1.257       .  A
O587       Al589   1.887       .  S
O588        C601   1.258       .  A
O588       Al598   1.887       .  S
Al589       O602   1.904       .  S
Al589       O599   1.918       .  S
Al589       O594   1.793       .  S
O590        C597   1.261       .  A
O590       Al598   1.911       .  S
O591        C600   1.264       .  A
O591       Al598   1.917       .  S
O592       Al598   1.888       .  S
O593        C600   1.261       .  A
O594       Al598   1.792       .  S
O595        C596   1.259       .  A
C596        C640   1.469       .  S
C597        C661   1.474       .  S
C600        C685   1.484       .  S
C601        O602   1.260       .  A
C601        C652   1.469       .  S
O603        C618   1.260       .  A
O603       Al611   1.887       .  S
C604        O614   1.258       .  A
C604        O605   1.261       .  A
C604        C673   1.470       .  S
O605       Al607   1.904       .  S
O606        C608   1.259       .  A
O606       Al607   1.895       .  S
Al607       O615   1.890       .  S
Al607       O617   1.908       .  S
Al607       O616   1.790       .  S
C608        O621   1.260       .  A
C608        C664   1.490       .  S
O609        C619   1.258       .  A
O609       Al611   1.891       .  S
O610        C623   1.257       .  A
O610       Al620   1.881       .  S
Al611       O624   1.919       .  S
Al611       O621   1.910       .  S
Al611       O616   1.787       .  S
O612        C619   1.264       .  A
O612       Al620   1.920       .  S
O613        C622   1.260       .  A
O613       Al620   1.911       .  S
O614       Al620   1.886       .  S
O615        C622   1.258       .  A
O616       Al620   1.791       .  S
O617        C618   1.261       .  A
C618        C649   1.482       .  S
C619        C628   1.487       .  S
C622        C688   1.471       .  S
C623        O624   1.262       .  A
C623        C637   1.486       .  S
C625        C626   1.406       .  A
C625        C630   1.417       .  A
C626        H635   1.084       .  S
C627        C628   1.417       .  A
C627        S631   1.803       .  S
C628        C629   1.405       .  A
C629        H636   1.084       .  S
C630        S632   1.801       .  S
S631        H634   1.407       .  S
S632        H633   1.406       .  S
C637        C638   1.408       .  A
C637        C642   1.419   1_655  A
C638        H647   1.084       .  S
C639        C640   1.409       .  A
C640        C641   1.400       .  A
C641        H648   1.085       .  S
C649        C650   1.406       .  A
C649        C886   1.419   1_545  A
C650        C651   1.397       .  A
C650        H659   1.083       .  S
C651        C884   1.410   1_545  A
C651        S655   1.803       .  S
C652        C883   1.410       .  A
C652        C653   1.400       .  A
C653        C654   1.398       .  A
C653        H660   1.084       .  S
C654        C881   1.419       .  A
C654        S656   1.803       .  S
S655        H890   1.406       .  S
S656        H889   1.408       .  S
H657        S888   1.408       .  S
H658        S887   1.406       .  S
C661        C662   1.400       .  A
C661        C666   1.412       .  A
C662        C779   1.399   1_556  A
C662        H671   1.085       .  S
C663        C778   1.399       .  A
C663        C664   1.421   1_565  A
C663        S667   1.803       .  S
C664        C665   1.408       .  A
C665        C782   1.400       .  A
C665        H672   1.084       .  S
C666        C781   1.400   1_556  A
C666        S668   1.803       .  S
S667        H670   1.408       .  S
S668        H669   1.407       .  S
C673        C678   1.411       .  A
C674        C675   1.396   1_554  A
C674        H683   1.085       .  S
C675        C676   1.421       .  A
C675        S679   1.803       .  S
C677        C678   1.397       .  A
C677        H684   1.084       .  S
C678        S680   1.803       .  S
S679        H682   1.408       .  S
S680        H681   1.407       .  S
C685        C686   1.406       .  A
C685        C690   1.418       .  A
C686        C687   1.399       .  A
C686        H695   1.084       .  S
C687        C688   1.410       .  A
C687        S691   1.803       .  S
C688        C689   1.400       .  A
C689        C690   1.400       .  A
C689        H696   1.085       .  S
C690        S692   1.804       .  S
S691        H694   1.406       .  S
S692        H693   1.408       .  S
O697        C712   1.257       .  A
O697       Al705   1.886       .  S
C698        O708   1.258       .  A
C698        O699   1.257       .  A
C698        C792   1.486       .  S
O699       Al701   1.900       .  S
O700        C702   1.260       .  A
O700       Al701   1.891       .  S
Al701       O709   1.891       .  S
Al701       O711   1.909       .  S
Al701       O710   1.791       .  S
C702        O715   1.262       .  A
C702        C741   1.489       .  S
O703        C713   1.257       .  A
O703       Al705   1.887       .  S
O704        C717   1.258       .  A
O704       Al714   1.887       .  S
Al705       O718   1.904       .  S
Al705       O715   1.918       .  S
Al705       O710   1.793       .  S
O706        C713   1.261       .  A
O706       Al714   1.911       .  S
O707        C716   1.264       .  A
O707       Al714   1.917       .  S
O708       Al714   1.888       .  S
O709        C716   1.261       .  A
O710       Al714   1.792       .  S
O711        C712   1.259       .  A
C712        C756   1.469       .  S
C713        C777   1.474       .  S
C716        C801   1.484       .  S
C717        O718   1.260       .  A
C717        C768   1.469       .  S
O719        C734   1.260       .  A
O719       Al727   1.887       .  S
C720        O730   1.258       .  A
C720        O721   1.261       .  A
C720        C789   1.470       .  S
O721       Al723   1.904       .  S
O722        C724   1.259       .  A
O722       Al723   1.895       .  S
Al723       O731   1.890       .  S
Al723       O733   1.908       .  S
Al723       O732   1.790       .  S
C724        O737   1.260       .  A
C724        C780   1.490       .  S
O725        C735   1.258       .  A
O725       Al727   1.891       .  S
O726        C739   1.257       .  A
O726       Al736   1.881       .  S
Al727       O740   1.919       .  S
Al727       O737   1.910       .  S
Al727       O732   1.787       .  S
O728        C735   1.264       .  A
O728       Al736   1.920       .  S
O729        C738   1.260       .  A
O729       Al736   1.911       .  S
O730       Al736   1.886       .  S
O731        C738   1.258       .  A
O732       Al736   1.791       .  S
O733        C734   1.261       .  A
C734        C765   1.482       .  S
C735        C744   1.487       .  S
C738        C804   1.471       .  S
C739        O740   1.262       .  A
C739        C753   1.486       .  S
C741        C742   1.406       .  A
C741        C746   1.417       .  A
C742        H751   1.083       .  S
C743        C744   1.417       .  A
C743        S747   1.803       .  S
C744        C745   1.405       .  A
C745        H752   1.084       .  S
C746        S748   1.801       .  S
S747        H750   1.407       .  S
S748        H749   1.406       .  S
C753        C754   1.408       .  A
C753        C758   1.419   1_655  A
C754        H763   1.084       .  S
C755        C756   1.409       .  A
C756        C757   1.400       .  A
C757        H764   1.085       .  S
C765        C766   1.406       .  A
C766        C767   1.397       .  A
C766        H775   1.083       .  S
C767        S771   1.803       .  S
C768        C769   1.400       .  A
C769        C770   1.398       .  A
C769        H776   1.084       .  S
C770        S772   1.803       .  S
C777        C778   1.400       .  A
C777        C782   1.412   1_565  A
C778        H787   1.085       .  S
C779        C780   1.421       .  A
C779        S783   1.803       .  S
C780        C781   1.408       .  A
C781        H788   1.084       .  S
C782        S784   1.803       .  S
S783        H786   1.408       .  S
S784        H785   1.407   1_545  S
C789        C906   1.399       .  A
C789        C794   1.411       .  A
C790        C905   1.399       .  A
C790        C791   1.396       .  A
C790        H799   1.085       .  S
C791        C792   1.421       .  A
C791        S795   1.803       .  S
C792        C909   1.408       .  A
C793        C908   1.408       .  A
C793        C794   1.397   1_556  A
C793        H800   1.084       .  S
C794        S796   1.803       .  S
S795        H798   1.408       .  S
S796        H797   1.407       .  S
C801        C802   1.406       .  A
C801        C806   1.418       .  A
C802        C803   1.399       .  A
C802        H811   1.084       .  S
C803        C804   1.410       .  A
C803        S807   1.803       .  S
C804        C805   1.400       .  A
C805        C806   1.400       .  A
C805        H812   1.085       .  S
C806        S808   1.804       .  S
S807        H810   1.406       .  S
S808        H809   1.408       .  S
O813        C828   1.257       .  A
O813       Al821   1.886       .  S
C814        O824   1.258       .  A
C814        O815   1.257       .  A
C814        C908   1.486       .  S
O815       Al817   1.900       .  S
O816        C818   1.260       .  A
O816       Al817   1.891       .  S
Al817       O825   1.891       .  S
Al817       O827   1.909       .  S
Al817       O826   1.791       .  S
C818        O831   1.262       .  A
C818        C857   1.489       .  S
O819        C829   1.257       .  A
O819       Al821   1.887       .  S
O820        C833   1.258       .  A
O820       Al830   1.887       .  S
Al821       O834   1.904       .  S
Al821       O831   1.918       .  S
Al821       O826   1.793       .  S
O822        C829   1.261       .  A
O822       Al830   1.911       .  S
O823        C832   1.264       .  A
O823       Al830   1.917       .  S
O824       Al830   1.888       .  S
O825        C832   1.261       .  A
O826       Al830   1.792       .  S
O827        C828   1.259       .  A
C828        C872   1.469       .  S
C829        C893   1.474       .  S
C832        C917   1.484       .  S
C833        O834   1.260       .  A
C833        C884   1.469       .  S
O835        C850   1.260       .  A
O835       Al843   1.887       .  S
C836        O846   1.258       .  A
C836        O837   1.261       .  A
C836        C905   1.470       .  S
O837       Al839   1.904       .  S
O838        C840   1.259       .  A
O838       Al839   1.895       .  S
Al839       O847   1.890       .  S
Al839       O849   1.908       .  S
Al839       O848   1.790       .  S
C840        O853   1.260       .  A
C840        C896   1.490       .  S
O841        C851   1.258       .  A
O841       Al843   1.891       .  S
O842        C855   1.257       .  A
O842       Al852   1.881       .  S
Al843       O856   1.919       .  S
Al843       O853   1.910       .  S
Al843       O848   1.787       .  S
O844        C851   1.264       .  A
O844       Al852   1.920       .  S
O845        C854   1.260       .  A
O845       Al852   1.911       .  S
O846       Al852   1.886       .  S
O847        C854   1.258       .  A
O848       Al852   1.791       .  S
O849        C850   1.261       .  A
C850        C881   1.482       .  S
C851        C860   1.487       .  S
C854        C920   1.471       .  S
C855        O856   1.262       .  A
C855        C869   1.486       .  S
C857        C858   1.406       .  A
C857        C862   1.417       .  A
C858        H867   1.084       .  S
C859        C860   1.417       .  A
C859        S863   1.803       .  S
C860        C861   1.405       .  A
C861        H868   1.084       .  S
C862        S864   1.801       .  S
S863        H866   1.407       .  S
S864        H865   1.406       .  S
C869        C870   1.408       .  A
C869        C874   1.419   1_655  A
C870        H879   1.084       .  S
C871        C872   1.409       .  A
C872        C873   1.400       .  A
C873        H880   1.085       .  S
C881        C882   1.406       .  A
C882        C883   1.397       .  A
C882        H891   1.083       .  S
C883        S887   1.803       .  S
C884        C885   1.400       .  A
C885        C886   1.398       .  A
C885        H892   1.084       .  S
C886        S888   1.803       .  S
C893        C894   1.400       .  A
C893        C898   1.412   1_565  A
C894        H903   1.085       .  S
C895        C896   1.421       .  A
C895        S899   1.803       .  S
C896        C897   1.408       .  A
C897        H904   1.084       .  S
C898        S900   1.803       .  S
S899        H902   1.408       .  S
S900        H901   1.407   1_545  S
C905        C910   1.411       .  A
C906        C907   1.396   1_554  A
C906        H915   1.085       .  S
C907        C908   1.421       .  A
C907        S911   1.803       .  S
C909        C910   1.397       .  A
C909        H916   1.084       .  S
C910        S912   1.803       .  S
S911        H914   1.408       .  S
S912        H913   1.407       .  S
C917        C918   1.406       .  A
C917        C922   1.418       .  A
C918        C919   1.399       .  A
C918        H927   1.084       .  S
C919        C920   1.410       .  A
C919        S923   1.803       .  S
C920        C921   1.400       .  A
C921        C922   1.400       .  A
C921        H928   1.085       .  S
C922        S924   1.804       .  S
S923        H926   1.406       .  S
S924        H925   1.408       .  S
