geometry optimzed in LAMMPS
_audit_creation_date              2020-11-30 
_audit_creation_method            'lammps2cif' 
_symmetry_space_group_name_H-M    'P1' 
_symmetry_Int_Tables_number       1 
_symmetry_cell_setting            triclinic 
loop_ 
_symmetry_equiv_pos_as_xyz 
  x,y,z 
_cell_length_a                    42.9963746 
_cell_length_b                    42.8356039794741 
_cell_length_c                    36.644040672513086 
_cell_angle_alpha                 90.04282068372534 
_cell_angle_beta                  89.87554630212843 
_cell_angle_gamma                 91.77018911542841 
loop_ 
_atom_site_label 
_atom_site_type_symbol 
_atom_site_fract_x 
_atom_site_fract_y 
_atom_site_fract_z 
_atom_site_charge 
C1          C  0.25002502  0.16389640  0.36033600    -0.02100
C2          C  0.22513228  0.19061164  0.36022442    -0.02100
C3          C  0.27731337  0.19004155  0.35776975    -0.02100
C4          C  0.25216480  0.21641442  0.35716464    -0.02100
C5          C  0.24889065  0.16263645  0.31709123    -0.02100
C6          C  0.22427909  0.18908717  0.31658634    -0.02100
C7          C  0.27621757  0.18826716  0.31493582    -0.02100
C8          C  0.25116102  0.21490132  0.31452719    -0.02100
O9          O  0.02946129  0.15370489  0.04715108    -0.74000
O10         O  0.46787974  0.15078931  0.12345604    -0.74100
O11         O  0.46594872  0.15345992  0.05029024    -0.74100
O12         O  0.03150837  0.15100806  0.12137498    -0.74200
O13         O  0.03338040  0.20286693  0.12328156    -0.74100
O14         O  0.46717478  0.20529774  0.05363535    -0.74100
O15         O  0.47019997  0.20278681  0.12684892    -0.74000
O16         O  0.03030510  0.20572403  0.04924443    -0.74100
Ni17       Ni  0.49878370  0.15037202  0.08548273     1.25400
Ni18       Ni  0.50043783  0.20597795  0.08834203     1.25400
C19         C  0.03965142  0.18025137  0.03520011     0.88200
C20         C  0.45819230  0.17640558  0.13678477     0.88100
C21         C  0.45483232  0.17982597  0.04134970     0.88100
C22         C  0.04335079  0.17655591  0.13423034     0.88300
O23         O  0.27391449  0.47213063  0.12419728    -0.74000
O24         O  0.28159557  0.40725411  0.05188463    -0.74100
O25         O  0.28261983  0.47053212  0.04987273    -0.74100
O26         O  0.27320704  0.40873819  0.12570819    -0.74200
O27         O  0.22183681  0.40712713  0.11728116    -0.74100
O28         O  0.23130764  0.46966405  0.04215602    -0.74100
O29         O  0.23021157  0.40678390  0.04347015    -0.74000
O30         O  0.22263247  0.47077141  0.11632124    -0.74100
Ni31       Ni  0.27964939  0.43976904  0.08825072     1.25400
Ni32       Ni  0.22468939  0.43862243  0.07963101     1.25400
C33         C  0.24688276  0.48193391  0.13262639     0.88200
C34         C  0.25712286  0.39671220  0.03546105     0.88100
C35         C  0.25858450  0.47952954  0.03254926     0.88100
C36         C  0.24607551  0.39744322  0.13363354     0.88300
C37         C  0.23356905  0.31873689  0.18090337    -0.22100
C38         C  0.24315687  0.32563582  0.21670061     0.09900
C39         C  0.25145295  0.35701163  0.22558189     0.10300
C40         C  0.25230476  0.37987779  0.19786509    -0.17000
C41         C  0.24306372  0.37273362  0.16198570    -0.27400
C42         C  0.23222324  0.34196311  0.15393343     0.18600
C43         C  0.24425194  0.29951098  0.24389741     0.12600
C44         C  0.25800176  0.36683578  0.26440075    -0.11800
H45         H  0.25969874  0.40365898  0.20436821     0.12900
C46         C  0.21925827  0.33243846  0.11732001    -0.22600
H47         H  0.22718364  0.29483145  0.17375476     0.08500
C48         C  0.21775118  0.28096499  0.25286713     0.04900
C49         C  0.22072665  0.25471044  0.27552891    -0.19800
C50         C  0.24917925  0.24621788  0.29155048    -0.12100
C51         C  0.27438461  0.26846736  0.28661522     0.13600
C52         C  0.27227081  0.29295082  0.26116183    -0.22500
C53         C  0.18579251  0.28965106  0.24021293    -0.05600
H54         H  0.19962630  0.24245307  0.28208108     0.15100
C55         C  0.30405353  0.26773217  0.30735953    -0.15800
H56         H  0.29279648  0.30738625  0.25519642     0.09400
H57         H  0.19430134  0.32550941  0.12045876     0.07300
H58         H  0.23172984  0.31193360  0.10712977     0.08500
H59         H  0.22116633  0.35113416  0.09653393     0.07500
H60         H  0.27929892  0.35597878  0.27470895     0.02400
H61         H  0.23794988  0.35981343  0.28204288     0.02900
H62         H  0.26158963  0.39254966  0.26673315     0.06400
H63         H  0.16730948  0.27468229  0.25301826     0.05400
H64         H  0.18363525  0.28699176  0.21025615    -0.00400
H65         H  0.18141738  0.31419359  0.24795755     0.01100
H66         H  0.32394159  0.26392806  0.28867053     0.04700
H67         H  0.30239662  0.24930712  0.32757102     0.06700
H68         H  0.30800603  0.29015260  0.32213057     0.07600
C69         C  0.37803667  0.16305106  0.17910141    -0.22100
C70         C  0.38146723  0.17939620  0.21205287     0.09900
C71         C  0.41040007  0.19396487  0.22075317     0.10300
C72         C  0.43526313  0.19226243  0.19595875    -0.17000
C73         C  0.43196183  0.17584014  0.16298481    -0.27400
C74         C  0.40293107  0.16115773  0.15434656     0.18600
C75         C  0.35446545  0.18122263  0.23713237     0.12600
C76         C  0.41483874  0.21156723  0.25605824    -0.11800
H77         H  0.45739842  0.20378034  0.20230970     0.12900
C78         C  0.39767518  0.14474132  0.11837559    -0.22600
H79         H  0.35566852  0.15207911  0.17260033     0.08500
C80         C  0.33159586  0.20352378  0.23256214     0.04900
C81         C  0.30736053  0.20522312  0.25810495    -0.19800
C82         C  0.30493561  0.18560307  0.28906500    -0.12100
C83         C  0.32830399  0.16247630  0.29249336     0.13600
C84         C  0.35225301  0.16069759  0.26650367    -0.22500
C85         C  0.33260318  0.22548201  0.20043718    -0.05600
H86         H  0.28963996  0.22131442  0.25215332     0.15100
C87         C  0.33019093  0.13933367  0.32289587    -0.15800
H88         H  0.36994560  0.14337262  0.26960904     0.09400
H89         H  0.37330383  0.13569515  0.11558631     0.07300
H90         H  0.41319382  0.12461668  0.11605481     0.08500
H91         H  0.40250650  0.16126331  0.09557732     0.07500
H92         H  0.41080795  0.19549801  0.27946269     0.02400
H93         H  0.39811244  0.23076492  0.25763504     0.02900
H94         H  0.43874905  0.22191851  0.25845140     0.06400
H95         H  0.31302323  0.24180747  0.20095021     0.05400
H96         H  0.33111704  0.21189625  0.17465681    -0.00400
H97         H  0.35470340  0.23958128  0.20075635     0.01100
H98         H  0.35361455  0.14082954  0.33562081     0.04700
H99         H  0.32628676  0.11533039  0.31204030     0.06700
H100        H  0.31361461  0.14384561  0.34447451     0.07600
C101        C  0.17374313  0.17745898  0.22786844    -0.22100
C102        C  0.14371807  0.18130565  0.24100931     0.09900
C103        C  0.13975792  0.19039662  0.27753147     0.10300
C104        C  0.16601436  0.19452664  0.30010739    -0.17000
C105        C  0.19634909  0.18694726  0.28888197    -0.27400
C106        C  0.19989038  0.18173275  0.25043580     0.18600
C107        C  0.11753072  0.18014119  0.21450874     0.12600
C108        C  0.10785154  0.19632327  0.29255444    -0.11800
H109        H  0.16266518  0.20623240  0.32561655     0.12900
C110        C  0.23001217  0.18509021  0.23025415    -0.22600
H111        H  0.17693128  0.17306712  0.19894335     0.08500
C112        C  0.10962691  0.20682464  0.19448158     0.04900
C113        C  0.08550228  0.20470267  0.16879123    -0.19800
C114        C  0.06904396  0.17636150  0.16188172    -0.12100
C115        C  0.07750395  0.14935303  0.18175651     0.13600
C116        C  0.10157164  0.15172728  0.20781250    -0.22500
C117        C  0.12683175  0.23761096  0.20006259    -0.05600
H118        H  0.07971991  0.22549305  0.15375209     0.15100
C119        C  0.06139432  0.11796659  0.17623711    -0.15800
H120        H  0.10817436  0.13124586  0.22295912     0.09400
H121        H  0.22922989  0.20533908  0.21139075     0.07300
H122        H  0.23413077  0.16383049  0.21384711     0.08500
H123        H  0.24921160  0.18953545  0.24879404     0.07500
H124        H  0.09302453  0.17473475  0.29017017     0.02400
H125        H  0.09697326  0.21536605  0.27709510     0.02900
H126        H  0.10874734  0.20312829  0.32180027     0.06400
H127        H  0.11796452  0.25613511  0.18200628     0.05400
H128        H  0.15193608  0.23504823  0.19401989     0.01200
H129        H  0.12399318  0.24534808  0.22871672     0.01100
H130        H  0.06509823  0.10979446  0.14785245     0.04700
H131        H  0.03612633  0.11966338  0.18190396     0.06700
H132        H  0.07060754  0.09997103  0.19478885     0.07600
C133        C  0.22233257  0.08144886  0.27296122    -0.22100
C134        C  0.24304362  0.07924680  0.24360876     0.09900
C135        C  0.26413937  0.10418477  0.23709243     0.10300
C136        C  0.26521289  0.12967045  0.26101467    -0.17000
C137        C  0.24557401  0.13261849  0.29182632    -0.27400
C138        C  0.22323299  0.10739958  0.29700067     0.18600
C139        C  0.24171052  0.05175505  0.21848777     0.12600
C140        C  0.28449035  0.10501169  0.20334266    -0.11800
H141        H  0.28001986  0.14830409  0.25219519     0.12900
C142        C  0.20025381  0.10570928  0.32769460    -0.22600
H143        H  0.20546070  0.06249185  0.27746098     0.08500
C144        C  0.26498575  0.02919433  0.21875972     0.04900
C145        C  0.26614152  0.50705392  0.19036014    -0.19800
C146        C  0.24383137  0.50592301  0.16222999    -0.12100
C147        C  0.21934895  0.02750565  0.16341050     0.13600
C148        C  0.21888031  0.05025627  0.19124906    -0.22500
C149        C  0.28827021  0.02813832  0.24944381    -0.05600
H150        H  0.28444439  0.49021954  0.19043375     0.15100
C151        C  0.19416732  0.02763881  0.13487330    -0.15800
H152        H  0.20103532  0.06759108  0.19125230     0.09400
H153        H  0.20251552  0.08338636  0.34272898     0.07300
H154        H  0.17624607  0.10700801  0.31680901     0.08500
H155        H  0.20432197  0.12431728  0.34741031     0.07500
H156        H  0.26963970  0.10381854  0.17860659     0.02400
H157        H  0.30029152  0.08508034  0.20309828     0.02900
H158        H  0.29922000  0.12673824  0.20167474     0.06400
H159        H  0.30470571  0.00888997  0.24570327     0.05400
H160        H  0.27578881  0.02432048  0.27569815    -0.00400
H161        H  0.30211639  0.05033805  0.25121191     0.01100
H162        H  0.18009216  0.00551173  0.13614202     0.04700
H163        H  0.20470510  0.53048585  0.10734320     0.06700
H164        H  0.17800978  0.04705783  0.13914330     0.07600
C165        C  0.23347762  0.29737982  0.40016745    -0.22100
C166        C  0.26083903  0.30432154  0.41970407     0.09900
C167        C  0.28677253  0.28570785  0.41379463     0.10300
C168        C  0.28339592  0.25855386  0.39267768    -0.17000
C169        C  0.25514900  0.24923572  0.37566644    -0.27400
C170        C  0.23049765  0.27080579  0.37752557     0.18600
C171        C  0.26106437  0.32904215  0.44852475     0.12600
C172        C  0.31847965  0.29478065  0.42882860    -0.11800
H173        H  0.30378585  0.24538757  0.38902021     0.12900
C174        C  0.19961264  0.26592794  0.35903502    -0.22600
H175        H  0.21338371  0.31160013  0.40443633     0.08500
C176        C  0.25492205  0.36064743  0.44104334     0.04900
C177        C  0.25372349  0.38213203  0.47009005    -0.19800
C178        C  0.25973674  0.37311402  0.00614413    -0.12100
C179        C  0.26808624  0.34204828  0.01308775     0.13600
C180        C  0.26723574  0.32023165  0.98449071    -0.22500
C181        C  0.25089351  0.37213229  0.40251917    -0.05600
H182        H  0.24845134  0.40619007  0.46452186     0.15100
C183        C  0.27799204  0.33089096  0.05008329    -0.15800
H184        H  0.27181685  0.29601900  0.99048412     0.09400
H185        H  0.19580126  0.28544575  0.33979819     0.07300
H186        H  0.18061521  0.26547529  0.37961398     0.08500
H187        H  0.19803399  0.24395504  0.34383137     0.07500
H188        H  0.31855670  0.29385462  0.45901677     0.02400
H189        H  0.32516406  0.31879085  0.41975458     0.02900
H190        H  0.33667264  0.27887426  0.41910526     0.06400
H191        H  0.24849052  0.39786413  0.40160552     0.05400
H192        H  0.22971489  0.36139744  0.39002493    -0.00400
H193        H  0.27154268  0.36623027  0.38592632     0.01100
H194        H  0.26330968  0.31027928  0.05800566     0.04700
H195        H  0.27629454  0.34891568  0.07162127     0.06700
H196        H  0.30253086  0.32363080  0.04865362     0.07600
C197        C  0.35904406  0.19056368  0.40791583    -0.22100
C198        C  0.34974816  0.18167915  0.44277897     0.09900
C199        C  0.31791816  0.17811280  0.45052992     0.10300
C200        C  0.29631029  0.18205733  0.42233906    -0.17000
C201        C  0.30481240  0.18922652  0.38605125    -0.27400
C202        C  0.33757030  0.19595318  0.38001985     0.18600
C203        C  0.37426859  0.17929474  0.47089756     0.12600
C204        C  0.30673679  0.17009542  0.48844705    -0.11800
H205        H  0.27231117  0.17965547  0.42900099     0.12900
C206        C  0.35263095  0.21195440  0.34779391    -0.22600
H207        H  0.38370864  0.19499876  0.40296479     0.08500
C208        C  0.39375817  0.15347901  0.47219278     0.04900
C209        C  0.41957568  0.15424575  0.49561151    -0.19800
C210        C  0.42698142  0.18057784  0.01713040    -0.12100
C211        C  0.40696313  0.20641549  0.01587044     0.13600
C212        C  0.38095837  0.20525007  0.99271348    -0.22500
C213        C  0.38741631  0.12529985  0.44847567    -0.05600
H214        H  0.43448652  0.13431998  0.49633681     0.15100
C215        C  0.41235677  0.23533938  0.03877146    -0.15800
H216        H  0.36610187  0.22519022  0.99088580     0.09400
H217        H  0.33694940  0.21805775  0.32648359     0.07300
H218        H  0.37072541  0.19705894  0.33585775     0.08500
H219        H  0.36411610  0.23423147  0.35682635     0.07500
H220        H  0.31433494  0.18899241  0.00748053     0.02400
H221        H  0.31680635  0.14781299  0.49733426     0.02900
H222        H  0.28097264  0.16740155  0.48972523     0.06400
H223        H  0.40427820  0.10666732  0.45352497     0.05400
H224        H  0.38898948  0.13197401  0.41925411    -0.00400
H225        H  0.36369971  0.11570785  0.45424331     0.01100
H226        H  0.43445285  0.24746585  0.03055230     0.04700
H227        H  0.41310728  0.22893844  0.06811163     0.06700
H228        H  0.39350737  0.25224032  0.03528596     0.07600
C229        C  0.08533810  0.20211446  0.44871591    -0.22100
C230        C  0.11232015  0.18507323  0.45369991     0.09900
C231        C  0.11428829  0.16513940  0.98409880     0.10300
C232        C  0.08961587  0.16312454  0.00929279    -0.17000
C233        C  0.06332924  0.18149022  0.00559165    -0.27400
C234        C  0.06058174  0.20012665  0.47393781     0.18600
C235        C  0.13887870  0.18914758  0.42778046     0.12600
C236        C  0.14253336  0.14582607  0.98999965    -0.11800
H237        H  0.09132587  0.14785207  0.03273660     0.12900
C238        C  0.03182637  0.21804766  0.46554184    -0.22600
H239        H  0.08360357  0.21710180  0.42502146     0.08500
C240        C  0.14180932  0.17035476  0.39670306     0.04900
C241        C  0.16966477  0.17172858  0.37649627    -0.19800
C242        C  0.19547064  0.19160225  0.38555671    -0.12100
C243        C  0.19213353  0.20967085  0.41863495     0.13600
C244        C  0.16351491  0.20932098  0.43743778    -0.22500
C245        C  0.11561680  0.14842445  0.38507031    -0.05600
H246        H  0.17059843  0.15725627  0.35277358     0.15100
C247        C  0.21820870  0.22493317  0.44034826    -0.15800
H248        H  0.16139219  0.22277541  0.46239268     0.09400
H249        H  0.02296619  0.21116067  0.43815614     0.07300
H250        H  0.03769553  0.24346891  0.46541884     0.08500
H251        H  0.01347904  0.21554341  0.98625153     0.07500
H252        H  0.16342834  0.16140845  0.99345326     0.02400
H253        H  0.14655212  0.13050595  0.46704347     0.02900
H254        H  0.14015808  0.13098302  0.01474479     0.06400
H255        H  0.12152267  0.13530303  0.35996128     0.05400
H256        H  0.09453201  0.16192539  0.37941539    -0.00400
H257        H  0.11035520  0.13126743  0.40709205     0.01100
H258        H  0.21492777  0.25034656  0.44278926     0.04700
H259        H  0.24129886  0.21951597  0.43003813     0.06700
H260        H  0.21775674  0.21577210  0.46873354     0.07600
C261        C  0.24576291  0.02397655  0.44319344    -0.22100
C262        C  0.26975739  0.04681209  0.44467817     0.09900
C263        C  0.29183569  0.04565941  0.97329448     0.10300
C264        C  0.28810098  0.02294679  0.00086484    -0.17000
C265        C  0.26257528  0.50155265  0.00101781    -0.27400
C266        C  0.24173926  0.50147543  0.47093697     0.18600
C267        C  0.26624376  0.07573244  0.42270199     0.12600
C268        C  0.31853729  0.06910238  0.97520841    -0.11800
H269        H  0.30453349  0.02280007  0.02324054     0.12900
C270        C  0.21518815  0.47786414  0.46750738    -0.22600
H271        H  0.22887434  0.02504309  0.42133168     0.08500
C272        C  0.27633215  0.07966744  0.38656906     0.04900
C273        C  0.26994864  0.10763574  0.36794496    -0.19800
C274        C  0.25322010  0.13248679  0.38360950    -0.12100
C275        C  0.24089741  0.12589194  0.41963101     0.13600
C276        C  0.24906701  0.09888751  0.43855474    -0.22500
C277        C  0.29369833  0.05434547  0.36762043    -0.05600
H278        H  0.27747252  0.10902417  0.34016652     0.15100
C279        C  0.21737119  0.14425214  0.43949935    -0.15800
H280        H  0.24044656  0.09464350  0.46604029     0.09400
H281        H  0.20300391  0.47985538  0.44094592     0.07300
H282        H  0.19777956  0.48151431  0.48935176     0.08500
H283        H  0.22409269  0.45400864  0.96909967     0.07500
H284        H  0.30908770  0.09331741  0.47717532     0.02400
H285        H  0.33293267  0.06724196  0.95016549     0.02900
H286        H  0.33363515  0.06511211  0.99920630     0.06400
H287        H  0.30012617  0.06096753  0.33922109     0.05400
H288        H  0.27894190  0.03263601  0.36655285    -0.00400
H289        H  0.31537839  0.04969089  0.38280973     0.01100
H290        H  0.21240437  0.13565830  0.46757449     0.04700
H291        H  0.19498468  0.14179714  0.42535465     0.06700
H292        H  0.22612426  0.16788194  0.44350476     0.07600
C293        C  0.25008756  0.16385756  0.86019402    -0.02100
C294        C  0.22514585  0.19053698  0.86008826    -0.02100
C295        C  0.27732914  0.19005235  0.85761333    -0.02100
C296        C  0.25212706  0.21638111  0.85699150    -0.02100
C297        C  0.24895504  0.16261462  0.81694165    -0.02100
C298        C  0.22428615  0.18901215  0.81643866    -0.02100
C299        C  0.27623833  0.18827615  0.81477775    -0.02100
C300        C  0.25112232  0.21486134  0.81435895    -0.02100
O301        O  0.02933190  0.15344442  0.54704949    -0.74000
O302        O  0.46792578  0.15101444  0.62348737    -0.74100
O303        O  0.46586325  0.15348721  0.55034510    -0.74100
O304        O  0.03152270  0.15098156  0.62123260    -0.74200
O305        O  0.03363225  0.20284251  0.62290639    -0.74100
O306        O  0.46724520  0.20534028  0.55352371    -0.74100
O307        O  0.47044906  0.20301887  0.62673001    -0.74000
O308        O  0.03032401  0.20548342  0.54884601    -0.74100
Ni309      Ni  0.49873638  0.15036611  0.58545265     1.25400
Ni310      Ni  0.50059741  0.20598641  0.58808805     1.25400
C311        C  0.03956129  0.17991291  0.53493610     0.88200
C312        C  0.45834993  0.17669768  0.63674594     0.88100
C313        C  0.45481522  0.17986989  0.54135813     0.88100
C314        C  0.04350936  0.17651686  0.63393581     0.88300
O315        O  0.27399831  0.47211096  0.62430653    -0.74000
O316        O  0.28179143  0.40743347  0.55184985    -0.74100
O317        O  0.28264460  0.47069750  0.54997381    -0.74100
O318        O  0.27337616  0.40874038  0.62566814    -0.74200
O319        O  0.22200522  0.40707970  0.61723674    -0.74100
O320        O  0.23132375  0.46971815  0.54230142    -0.74100
O321        O  0.23040022  0.40685144  0.54344676    -0.74000
O322        O  0.22270962  0.47067665  0.61645936    -0.74100
Ni323      Ni  0.27977156  0.43985531  0.58828272     1.25400
Ni324      Ni  0.22480338  0.43861438  0.57968240     1.25400
C325        C  0.24695332  0.48183475  0.63278250     0.88200
C326        C  0.25734091  0.39685953  0.53542188     0.88100
C327        C  0.25856888  0.47964854  0.53268572     0.88100
C328        C  0.24624876  0.39740916  0.63357135     0.88300
C329        C  0.23303667  0.31887010  0.68100938    -0.22100
C330        C  0.24288404  0.32569818  0.71672991     0.09900
C331        C  0.25161674  0.35699262  0.72550214     0.10300
C332        C  0.25267320  0.37980044  0.69773107    -0.17000
C333        C  0.24320212  0.37271496  0.66192230    -0.27400
C334        C  0.23189552  0.34207520  0.65399608     0.18600
C335        C  0.24398873  0.29955684  0.74389890     0.12600
C336        C  0.25839178  0.36682513  0.76427043    -0.11800
H337        H  0.26038101  0.40350767  0.70414804     0.12900
C338        C  0.21865796  0.33265811  0.61747135    -0.22600
H339        H  0.22633338  0.29502807  0.67393492     0.08500
C340        C  0.21748615  0.28106260  0.75302259     0.04900
C341        C  0.22054687  0.25470490  0.77551116    -0.19800
C342        C  0.24905364  0.24617735  0.79139108    -0.12100
C343        C  0.27423639  0.26843445  0.78639632     0.13600
C344        C  0.27207447  0.29289338  0.76093745    -0.22500
C345        C  0.18546420  0.28994053  0.74078357    -0.05600
H346        H  0.19946390  0.24239870  0.78208400     0.15100
C347        C  0.30392638  0.26775031  0.80710090    -0.15800
H348        H  0.29261756  0.30725599  0.75482721     0.09400
H349        H  0.19362014  0.32612298  0.62075371     0.07300
H350        H  0.23077194  0.31193156  0.60726944     0.08500
H351        H  0.22078204  0.35126972  0.59660610     0.07500
H352        H  0.27959560  0.35577122  0.77453609     0.02400
H353        H  0.23832442  0.36005799  0.78201222     0.02900
H354        H  0.26226092  0.39251211  0.76651851     0.06400
H355        H  0.16702135  0.27494202  0.75363050     0.05400
H356        H  0.18306488  0.28750906  0.71082864    -0.00400
H357        H  0.18123626  0.31444572  0.74882176     0.01100
H358        H  0.32380771  0.26396433  0.78839662     0.04700
H359        H  0.30230317  0.24934674  0.82733741     0.06700
H360        H  0.30786212  0.29018836  0.82184102     0.07600
C361        C  0.37811901  0.16354489  0.67886647    -0.22100
C362        C  0.38164507  0.17950833  0.71205562     0.09900
C363        C  0.41063242  0.19390078  0.72090335     0.10300
C364        C  0.43549226  0.19230137  0.69608106    -0.17000
C365        C  0.43209049  0.17622829  0.66288980    -0.27400
C366        C  0.40296621  0.16185509  0.65402917     0.18600
C367        C  0.35461840  0.18129733  0.73710791     0.12600
C368        C  0.41511676  0.21124812  0.75637019    -0.11800
H369        H  0.45769018  0.20362721  0.70257332     0.12900
C370        C  0.39755100  0.14605935  0.61771192    -0.22600
H371        H  0.35569258  0.15277168  0.67221444     0.08500
C372        C  0.33179824  0.20365336  0.73257511     0.04900
C373        C  0.30748646  0.20528520  0.75802789    -0.19800
C374        C  0.30498475  0.18560720  0.78893003    -0.12100
C375        C  0.32832936  0.16245178  0.79234440     0.13600
C376        C  0.35230811  0.16068168  0.76638575    -0.22500
C377        C  0.33296722  0.22577563  0.70060584    -0.05600
H378        H  0.28979149  0.22140080  0.75207540     0.15100
C379        C  0.33018101  0.13929426  0.82272810    -0.15800
H380        H  0.36996248  0.14331396  0.76946611     0.09400
H381        H  0.37312773  0.13720079  0.61479789     0.07300
H382        H  0.41295106  0.12589142  0.61485599     0.08500
H383        H  0.40242059  0.16294515  0.59529007     0.07500
H384        H  0.41104835  0.19502960  0.77962565     0.02400
H385        H  0.39843748  0.23047737  0.75813037     0.02900
H386        H  0.43904870  0.22152944  0.75884593     0.06400
H387        H  0.31343487  0.24215554  0.70115354     0.05400
H388        H  0.33152724  0.21233287  0.67472193    -0.00400
H389        H  0.35510378  0.23981244  0.70111962     0.01100
H390        H  0.35360574  0.14074923  0.83545360     0.04700
H391        H  0.32623910  0.11530045  0.81185955     0.06700
H392        H  0.31362429  0.14384987  0.84431155     0.07600
C393        C  0.17390266  0.17740831  0.72759584    -0.22100
C394        C  0.14384626  0.18106986  0.74071823     0.09900
C395        C  0.13979931  0.19000284  0.77727647     0.10300
C396        C  0.16601611  0.19421169  0.79989490    -0.17000
C397        C  0.19640021  0.18682403  0.78868035    -0.27400
C398        C  0.20000836  0.18172734  0.75021622     0.18600
C399        C  0.11770250  0.17994344  0.71417478     0.12600
C400        C  0.10783945  0.19569694  0.79228781    -0.11800
H401        H  0.16259153  0.20589070  0.82539693     0.12900
C402        C  0.23013544  0.18527884  0.73007626    -0.22600
H403        H  0.17713932  0.17313771  0.69865270     0.08500
C404        C  0.10972248  0.20670128  0.69433387     0.04900
C405        C  0.08560872  0.20462964  0.66862777    -0.19800
C406        C  0.06923422  0.17627255  0.66153811    -0.12100
C407        C  0.07779924  0.14918712  0.68120575     0.13600
C408        C  0.10185360  0.15151148  0.70727327    -0.22500
C409        C  0.12683085  0.23751338  0.70014219    -0.05600
H410        H  0.07975649  0.22547738  0.65374026     0.15100
C411        C  0.06183745  0.11775845  0.67544109    -0.15800
H412        H  0.10852876  0.13097875  0.72227604     0.09400
H413        H  0.22928258  0.20558867  0.71130850     0.07300
H414        H  0.23435753  0.16409607  0.71357290     0.08500
H415        H  0.24930545  0.18972805  0.74864940     0.07500
H416        H  0.09313824  0.17403233  0.78979806     0.02400
H417        H  0.09686022  0.21471857  0.77689600     0.02900
H418        H  0.10867166  0.20241929  0.82156034     0.06400
H419        H  0.11790333  0.25610216  0.68222212     0.05400
H420        H  0.15194760  0.23506840  0.69408113     0.01200
H421        H  0.12397514  0.24509124  0.72885406     0.01100
H422        H  0.06554586  0.10979040  0.64697608     0.04700
H423        H  0.03656615  0.11928456  0.68118483     0.06700
H424        H  0.07116704  0.09969097  0.69380968     0.07600
C425        C  0.22262823  0.08136467  0.77297451    -0.22100
C426        C  0.24330461  0.07920510  0.74358967     0.09900
C427        C  0.26430630  0.10420200  0.73696390     0.10300
C428        C  0.26529050  0.12975651  0.76079381    -0.17000
C429        C  0.24569296  0.13263006  0.79166376    -0.27400
C430        C  0.22344429  0.10735896  0.79692774     0.18600
C431        C  0.24195015  0.05170865  0.71851169     0.12600
C432        C  0.28468271  0.10499068  0.70323597    -0.11800
H433        H  0.27999517  0.14843925  0.75190530     0.12900
C434        C  0.20045452  0.10569409  0.82761448    -0.22600
H435        H  0.20582731  0.06235753  0.77754153     0.08500
C436        C  0.26514741  0.02907631  0.71886903     0.04900
C437        C  0.26622060  0.50686778  0.69054254    -0.19800
C438        C  0.24389928  0.50576304  0.66242198    -0.12100
C439        C  0.21944468  0.02736662  0.66359079     0.13600
C440        C  0.21908167  0.05020088  0.69132398    -0.22500
C441        C  0.28843055  0.02803263  0.74955290    -0.05600
H442        H  0.28447750  0.48998276  0.69064642     0.15100
C443        C  0.19415652  0.02739980  0.63518057    -0.15800
H444        H  0.20127180  0.06757221  0.69130551     0.09400
H445        H  0.20290590  0.08350855  0.84287216     0.07300
H446        H  0.17643748  0.10670466  0.81669000     0.08500
H447        H  0.20431894  0.12450660  0.84712101     0.07500
H448        H  0.26986134  0.10366479  0.67848112     0.02400
H449        H  0.30054737  0.08510761  0.70311759     0.02900
H450        H  0.29934447  0.12675785  0.70149630     0.06400
H451        H  0.30475333  0.00867077  0.74593274     0.05400
H452        H  0.27594119  0.02440726  0.77583674    -0.00400
H453        H  0.30238997  0.05017338  0.75116127     0.01100
H454        H  0.18010161  0.00526619  0.63662011     0.04700
H455        H  0.20458519  0.53016501  0.60758212     0.06700
H456        H  0.17800255  0.04682074  0.63945444     0.07600
C457        C  0.23316268  0.29726231  0.90001230    -0.22100
C458        C  0.26052008  0.30428897  0.91952618     0.09900
C459        C  0.28652744  0.28578487  0.91353257     0.10300
C460        C  0.28323257  0.25862581  0.89240867    -0.17000
C461        C  0.25499966  0.24922209  0.87543989    -0.27400
C462        C  0.23026017  0.27069640  0.87734647     0.18600
C463        C  0.26068349  0.32896687  0.94841117     0.12600
C464        C  0.31822967  0.29497182  0.92848968    -0.11800
H465        H  0.30365024  0.24548587  0.88875717     0.12900
C466        C  0.19936202  0.26571519  0.85890926    -0.22600
H467        H  0.21300727  0.31138180  0.90434466     0.08500
C468        C  0.25430034  0.36053813  0.94104927     0.04900
C469        C  0.25310878  0.38196594  0.97015678    -0.19800
C470        C  0.26002649  0.37325479  0.50615022    -0.12100
C471        C  0.26811135  0.34213753  0.51323861     0.13600
C472        C  0.26736173  0.32030206  0.48466627    -0.22500
C473        C  0.25005998  0.37207412  0.90257949    -0.05600
H474        H  0.24763335  0.40598376  0.96467690     0.15100
C475        C  0.27757996  0.33094325  0.55038648    -0.15800
H476        H  0.27177849  0.29606638  0.49073253     0.09400
H477        H  0.19545369  0.28522173  0.83968779     0.07300
H478        H  0.18038930  0.26519421  0.87951998     0.08500
H479        H  0.19783700  0.24374092  0.84370696     0.07500
H480        H  0.31840225  0.29393709  0.95867024     0.02400
H481        H  0.32476740  0.31904274  0.91950470     0.02900
H482        H  0.33648016  0.27919761  0.91861585     0.06400
H483        H  0.24752402  0.39779139  0.90175247     0.05400
H484        H  0.22888503  0.36126447  0.89016365    -0.00400
H485        H  0.27068008  0.36631510  0.88586014     0.01100
H486        H  0.26260423  0.31050901  0.55820021     0.04700
H487        H  0.27589495  0.34903404  0.57185141     0.06700
H488        H  0.30204210  0.32341505  0.54927734     0.07600
C489        C  0.35910271  0.19045061  0.90764755    -0.22100
C490        C  0.34983608  0.18158972  0.94253229     0.09900
C491        C  0.31800447  0.17810203  0.95033316     0.10300
C492        C  0.29635508  0.18204343  0.92217351    -0.17000
C493        C  0.30483894  0.18926104  0.88588378    -0.27400
C494        C  0.33759574  0.19594432  0.87981106     0.18600
C495        C  0.37437478  0.17924496  0.97065290     0.12600
C496        C  0.30684413  0.17018072  0.98828395    -0.11800
H497        H  0.27238223  0.17956318  0.92885202     0.12900
C498        C  0.35262093  0.21199175  0.84759512    -0.22600
H499        H  0.38376785  0.19483041  0.90264860     0.08500
C500        C  0.39375139  0.15335096  0.97216896     0.04900
C501        C  0.41953271  0.15411369  0.99566102    -0.19800
C502        C  0.42694102  0.18063627  0.51722267    -0.12100
C503        C  0.40681869  0.20639255  0.51620074     0.13600
C504        C  0.38076982  0.20522365  0.49311548    -0.22500
C505        C  0.38732206  0.12509222  0.94861424    -0.05600
H506        H  0.43434606  0.13411948  0.99655817     0.15100
C507        C  0.41215714  0.23522126  0.53928198    -0.15800
H508        H  0.36582984  0.22510991  0.49144957     0.09400
H509        H  0.33690446  0.21817233  0.82635647     0.07300
H510        H  0.37066713  0.19709186  0.83556458     0.08500
H511        H  0.36416236  0.23422792  0.85666942     0.07500
H512        H  0.31412426  0.18890739  0.50769289     0.02400
H513        H  0.31682770  0.14786243  0.99719068     0.02900
H514        H  0.28107443  0.16760382  0.98961754     0.06400
H515        H  0.40406898  0.10639065  0.95384547     0.05400
H516        H  0.38899284  0.13162923  0.91935626    -0.00400
H517        H  0.36354568  0.11565876  0.95435943     0.01100
H518        H  0.43417873  0.24748381  0.53105280     0.04700
H519        H  0.41303191  0.22867818  0.56857313     0.06700
H520        H  0.39321968  0.25205197  0.53599547     0.07600
C521        C  0.08596402  0.20337582  0.94959601    -0.22100
C522        C  0.11253638  0.18561533  0.95400725     0.09900
C523        C  0.11442518  0.16515906  0.48426677     0.10300
C524        C  0.08979364  0.16317615  0.50950384    -0.17000
C525        C  0.06316622  0.18095215  0.50529402    -0.27400
C526        C  0.06119180  0.20141572  0.97480337     0.18600
C527        C  0.13906967  0.18952131  0.92801244     0.12600
C528        C  0.14294848  0.14634416  0.49056137    -0.11800
H529        H  0.09177654  0.14840239  0.53334625     0.12900
C530        C  0.03289813  0.22021028  0.96693771    -0.22600
H531        H  0.08454313  0.21887888  0.92632152     0.08500
C532        C  0.14179396  0.17074215  0.89688704     0.04900
C533        C  0.16963189  0.17188306  0.87662638    -0.19800
C534        C  0.19556548  0.19162644  0.88557234    -0.12100
C535        C  0.19242311  0.20969055  0.91869976     0.13600
C536        C  0.16386770  0.20949302  0.93762792    -0.22500
C537        C  0.11535582  0.14913174  0.88521127    -0.05600
H538        H  0.17045749  0.15731214  0.85296581     0.15100
C539        C  0.21862661  0.22481328  0.94033619    -0.15800
H540        H  0.16190252  0.22292722  0.96261912     0.09400
H541        H  0.02405328  0.21430354  0.93924936     0.07300
H542        H  0.03932240  0.24550235  0.96782774     0.08500
H543        H  0.01262467  0.21352146  0.48520144     0.07500
H544        H  0.16364886  0.16224034  0.49368559     0.02400
H545        H  0.14595894  0.13029634  0.96616154     0.02900
H546        H  0.14078578  0.13185168  0.51560895     0.06400
H547        H  0.12107599  0.13603564  0.86002130     0.05400
H548        H  0.09442053  0.16289440  0.87967275    -0.00400
H549        H  0.10992944  0.13195074  0.90715529     0.01100
H550        H  0.21543562  0.25023079  0.94289990     0.04700
H551        H  0.24165276  0.21938139  0.92987643     0.06700
H552        H  0.21825624  0.21558009  0.96868965     0.07600
C553        C  0.24596417  0.02403648  0.94311078    -0.22100
C554        C  0.27003519  0.04679209  0.94463162     0.09900
C555        C  0.29154443  0.04583314  0.47336462     0.10300
C556        C  0.28788761  0.02316586  0.50098640    -0.17000
C557        C  0.26245730  0.50166369  0.50115248    -0.27400
C558        C  0.24186516  0.50149339  0.97080139     0.18600
C559        C  0.26659882  0.07576232  0.92269014     0.12600
C560        C  0.31814277  0.06940290  0.47524529    -0.11800
H561        H  0.30430484  0.02313012  0.52338178     0.12900
C562        C  0.21524787  0.47797044  0.96730868    -0.22600
H563        H  0.22907658  0.02519904  0.92125808     0.08500
C564        C  0.27664362  0.07968933  0.88653401     0.04900
C565        C  0.27011482  0.10759613  0.86783997    -0.19800
C566        C  0.25333605  0.13242930  0.88347176    -0.12100
C567        C  0.24105547  0.12582093  0.91951043     0.13600
C568        C  0.24936401  0.09889226  0.93850572    -0.22500
C569        C  0.29413041  0.05442418  0.86764012    -0.05600
H570        H  0.27755940  0.10894533  0.84002987     0.15100
C571        C  0.21741694  0.14408304  0.93930395    -0.15800
H572        H  0.24076731  0.09466112  0.96600412     0.09400
H573        H  0.20306948  0.48005453  0.94075509     0.07300
H574        H  0.19785506  0.48162103  0.98916917     0.08500
H575        H  0.22409934  0.45392989  0.46937374     0.07500
H576        H  0.30958968  0.09305653  0.97722773     0.02400
H577        H  0.33257069  0.06755674  0.45022656     0.02900
H578        H  0.33323536  0.06553854  0.49927845     0.06400
H579        H  0.30051629  0.06102600  0.83922250     0.05400
H580        H  0.27948558  0.03263888  0.86663646    -0.00400
H581        H  0.31584457  0.04991312  0.88283061     0.01100
H582        H  0.21234951  0.13541667  0.96732684     0.04700
H583        H  0.19509045  0.14160503  0.92502597     0.06700
H584        H  0.22613353  0.16770390  0.94341107     0.07600
C585        C  0.25002523  0.66389649  0.36033573    -0.02100
C586        C  0.22513253  0.69061176  0.36022414    -0.02100
C587        C  0.27731361  0.69004162  0.35776949    -0.02100
C588        C  0.25216506  0.71641452  0.35716439    -0.02100
C589        C  0.24889083  0.66263655  0.31709096    -0.02100
C590        C  0.22427933  0.68908731  0.31658607    -0.02100
C591        C  0.27621779  0.68826720  0.31493556    -0.02100
C592        C  0.25116130  0.71490139  0.31452694    -0.02100
O593        O  0.02946147  0.65370369  0.04715079    -0.74000
O594        O  0.46788003  0.65078828  0.12345614    -0.74100
O595        O  0.46594880  0.65345888  0.05029027    -0.74100
O596        O  0.03150873  0.65100692  0.12137471    -0.74200
O597        O  0.03338090  0.70286579  0.12328112    -0.74100
O598        O  0.46717504  0.70529670  0.05363538    -0.74100
O599        O  0.47020044  0.70278579  0.12684896    -0.74000
O600        O  0.03030535  0.70572284  0.04924401    -0.74100
Ni601      Ni  0.49878389  0.65037088  0.08548267     1.25400
Ni602      Ni  0.50043817  0.70597680  0.08834188     1.25400
C603        C  0.03965166  0.68025014  0.03519976     0.88200
C604        C  0.45819274  0.67640460  0.13678492     0.88100
C605        C  0.45483251  0.67982498  0.04134971     0.88100
C606        C  0.04335126  0.67655477  0.13422993     0.88300
O607        O  0.27391448  0.97213062  0.12419720    -0.74000
O608        O  0.28159549  0.90725397  0.05188453    -0.74100
O609        O  0.28261974  0.97053203  0.04987267    -0.74100
O610        O  0.27320717  0.90873818  0.12570810    -0.74200
O611        O  0.22183691  0.90712706  0.11728128    -0.74100
O612        O  0.23130754  0.96966394  0.04215608    -0.74100
O613        O  0.23021147  0.90678373  0.04347024    -0.74000
O614        O  0.22263244  0.97077137  0.11632125    -0.74100
Ni615      Ni  0.27964937  0.93976897  0.08825063     1.25400
Ni616      Ni  0.22468936  0.93862232  0.07963108     1.25400
C617        C  0.24688275  0.98193393  0.13262630     0.88200
C618        C  0.25712274  0.89671201  0.03546103     0.88100
C619        C  0.25858438  0.97952952  0.03254934     0.88100
C620        C  0.24607568  0.89744319  0.13363354     0.88300
C621        C  0.23356988  0.81873671  0.18090306    -0.22100
C622        C  0.24315770  0.82563568  0.21670031     0.09900
C623        C  0.25145362  0.85701149  0.22558169     0.10300
C624        C  0.25230523  0.87987774  0.19786498    -0.17000
C625        C  0.24306406  0.87273356  0.16198563    -0.27400
C626        C  0.23222376  0.84196302  0.15393327     0.18600
C627        C  0.24425267  0.79951086  0.24389706     0.12600
C628        C  0.25800248  0.86683557  0.26440058    -0.11800
H629        H  0.25969913  0.90365892  0.20436815     0.12900
C630        C  0.21925850  0.83243841  0.11731997    -0.22600
H631        H  0.22718461  0.79483127  0.17375441     0.08500
C632        C  0.21775182  0.78096498  0.25286670     0.04900
C633        C  0.22072722  0.75471055  0.27552856    -0.19800
C634        C  0.24917969  0.74621790  0.29155025    -0.12100
C635        C  0.27438512  0.76846728  0.28661507     0.13600
C636        C  0.27227147  0.79295068  0.26116161    -0.22500
C637        C  0.18579321  0.78965106  0.24021227    -0.05600
H638        H  0.19962675  0.74245320  0.28208074     0.15100
C639        C  0.30405398  0.76773204  0.30735950    -0.15800
H640        H  0.29279719  0.80738606  0.25519625     0.09400
H641        H  0.19430159  0.82550940  0.12045900     0.07300
H642        H  0.23172993  0.81193353  0.10712957     0.08500
H643        H  0.22116642  0.85113413  0.09653391     0.07500
H644        H  0.27929976  0.85597868  0.27470863     0.02400
H645        H  0.23795070  0.85981301  0.28204277     0.02900
H646        H  0.26159018  0.89254947  0.26673308     0.06400
H647        H  0.16731007  0.77468219  0.25301729     0.05400
H648        H  0.18363612  0.78699195  0.21025545    -0.00400
H649        H  0.18141801  0.81419355  0.24795704     0.01100
H650        H  0.32394208  0.76392790  0.28867057     0.04700
H651        H  0.30239699  0.74930701  0.32757099     0.06700
H652        H  0.30800649  0.79015248  0.32213052     0.07600
C653        C  0.37803694  0.66305105  0.17910148    -0.22100
C654        C  0.38146773  0.67939596  0.21205307     0.09900
C655        C  0.41040082  0.69396400  0.22075358     0.10300
C656        C  0.43526386  0.69226128  0.19595917    -0.17000
C657        C  0.43196232  0.67583929  0.16298505    -0.27400
C658        C  0.40293135  0.66115738  0.15434669     0.18600
C659        C  0.35446596  0.68122264  0.23713252     0.12600
C660        C  0.41483971  0.71156606  0.25605883    -0.11800
H661        H  0.45739933  0.70377878  0.20231026     0.12900
C662        C  0.39767524  0.64474108  0.11837569    -0.22600
H663        H  0.35566863  0.65207951  0.17260029     0.08500
C664        C  0.33159658  0.70352400  0.23256232     0.04900
C665        C  0.30736098  0.70522314  0.25810480    -0.19800
C666        C  0.30493582  0.68560301  0.28906476    -0.12100
C667        C  0.32830412  0.66247621  0.29249323     0.13600
C668        C  0.35225316  0.66069750  0.26650364    -0.22500
C669        C  0.33260448  0.72548270  0.20043780    -0.05600
H670        H  0.28964043  0.72131447  0.25215305     0.15100
C671        C  0.33019093  0.63933362  0.32289580    -0.15800
H672        H  0.36994565  0.64337236  0.26960901     0.09400
H673        H  0.37330375  0.63569532  0.11558629     0.07300
H674        H  0.41319358  0.62461621  0.11605488     0.08500
H675        H  0.40250688  0.66126305  0.09557748     0.07500
H676        H  0.41080856  0.69549677  0.27946314     0.02400
H677        H  0.39811379  0.73076408  0.25763571     0.02900
H678        H  0.43875020  0.72191688  0.25845215     0.06400
H679        H  0.31302469  0.74180835  0.20095089     0.05400
H680        H  0.33111847  0.71189735  0.17465713    -0.00400
H681        H  0.35470482  0.73958176  0.20075758     0.01100
H682        H  0.35361453  0.64082949  0.33562083     0.04700
H683        H  0.32628678  0.61533031  0.31204027     0.06700
H684        H  0.31361458  0.64384560  0.34447437     0.07600
C685        C  0.17374333  0.67745902  0.22786822    -0.22100
C686        C  0.14371826  0.68130541  0.24100920     0.09900
C687        C  0.13975809  0.69039640  0.27753134     0.10300
C688        C  0.16601456  0.69452675  0.30010717    -0.17000
C689        C  0.19634931  0.68694745  0.28888171    -0.27400
C690        C  0.19989058  0.68173294  0.25043554     0.18600
C691        C  0.11753091  0.68014068  0.21450866     0.12600
C692        C  0.10785166  0.69632256  0.29255449    -0.11800
H693        H  0.16266534  0.70623254  0.32561629     0.12900
C694        C  0.23001229  0.68509047  0.23025376    -0.22600
H695        H  0.17693145  0.67306720  0.19894313     0.08500
C696        C  0.10962633  0.70682427  0.19448223     0.04900
C697        C  0.08550187  0.70470204  0.16879172    -0.19800
C698        C  0.06904446  0.67636049  0.16188128    -0.12100
C699        C  0.07750538  0.64935185  0.18175516     0.13600
C700        C  0.10157288  0.65172639  0.20781135    -0.22500
C701        C  0.12683032  0.73761099  0.20006399    -0.05600
H702        H  0.07971890  0.72549254  0.15375318     0.15100
C703        C  0.06139707  0.61796493  0.17623445    -0.15800
H704        H  0.10817633  0.63124485  0.22295730     0.09400
H705        H  0.22922997  0.70533933  0.21139037     0.07300
H706        H  0.23413098  0.66383073  0.21384682     0.08500
H707        H  0.24921176  0.68953578  0.24879367     0.07500
H708        H  0.09302503  0.67473376  0.29017039     0.02400
H709        H  0.09697291  0.71536509  0.27709524     0.02900
H710        H  0.10874750  0.70312760  0.32180031     0.06400
H711        H  0.11796258  0.75613518  0.18200812     0.05400
H712        H  0.15193475  0.73504906  0.19402126     0.01200
H713        H  0.12399156  0.74534759  0.22871829     0.01100
H714        H  0.06510130  0.60979390  0.14784942     0.04700
H715        H  0.03612898  0.61966042  0.18190146     0.06700
H716        H  0.07061112  0.59996919  0.19478537     0.07600
C717        C  0.22233280  0.58144888  0.27296121    -0.22100
C718        C  0.24304392  0.57924670  0.24360885     0.09900
C719        C  0.26413953  0.60418475  0.23709231     0.10300
C720        C  0.26521290  0.62967049  0.26101440    -0.17000
C721        C  0.24557411  0.63261861  0.29182606    -0.27400
C722        C  0.22323313  0.60739969  0.29700050     0.18600
C723        C  0.24171080  0.55175487  0.21848800     0.12600
C724        C  0.28449042  0.60501165  0.20334246    -0.11800
H725        H  0.28001984  0.64830425  0.25219480     0.12900
C726        C  0.20025390  0.60570950  0.32769437    -0.22600
H727        H  0.20546093  0.56249187  0.27746103     0.08500
C728        C  0.26498634  0.52919447  0.21875951     0.04900
C729        C  0.26614102  0.00705371  0.19036044    -0.19800
C730        C  0.24383134  0.00592315  0.16222978    -0.12100
C731        C  0.21934853  0.52750497  0.16341141     0.13600
C732        C  0.21888008  0.55025560  0.19124992    -0.22500
C733        C  0.28827110  0.52813858  0.24944328    -0.05600
H734        H  0.28444361  0.99021903  0.19043445     0.15100
C735        C  0.19416617  0.52763751  0.13487505    -0.15800
H736        H  0.20103475  0.56759008  0.19125363     0.09400
H737        H  0.20251544  0.58338656  0.34272876     0.07300
H738        H  0.17624619  0.60700833  0.31680869     0.08500
H739        H  0.20432209  0.62431747  0.34741008     0.07500
H740        H  0.26963968  0.60381811  0.17860648     0.02400
H741        H  0.30029184  0.58508052  0.20309820     0.02900
H742        H  0.29921979  0.62673837  0.20167422     0.06400
H743        H  0.30470684  0.50889049  0.24570237     0.05400
H744        H  0.27578998  0.52432042  0.27569775    -0.00400
H745        H  0.30211701  0.55033846  0.25121145     0.01100
H746        H  0.18009155  0.50551011  0.13614427     0.04700
H747        H  0.20470701  0.03048692  0.10734181     0.06700
H748        H  0.17800825  0.54705613  0.13914561     0.07600
C749        C  0.23347766  0.79738003  0.40016707    -0.22100
C750        C  0.26083909  0.80432191  0.41970359     0.09900
C751        C  0.28677263  0.78570828  0.41379408     0.10300
C752        C  0.28339606  0.75855409  0.39267742    -0.17000
C753        C  0.25514915  0.74923587  0.37566618    -0.27400
C754        C  0.23049776  0.77080592  0.37752525     0.18600
C755        C  0.26106442  0.82904252  0.44852435     0.12600
C756        C  0.31847981  0.79478143  0.42882756    -0.11800
H757        H  0.30378596  0.74538777  0.38902012     0.12900
C758        C  0.19961277  0.76592792  0.35903467    -0.22600
H759        H  0.21338371  0.81160030  0.40443592     0.08500
C760        C  0.25492211  0.86064782  0.44104307     0.04900
C761        C  0.25372373  0.88213243  0.47008984    -0.19800
C762        C  0.25973649  0.87311376  0.00614409    -0.12100
C763        C  0.26808571  0.84204794  0.01308775     0.13600
C764        C  0.26723484  0.82023120  0.98449079    -0.22500
C765        C  0.25089335  0.87213269  0.40251895    -0.05600
H766        H  0.24845168  0.90619048  0.46452169     0.15100
C767        C  0.27799183  0.83089067  0.05008319    -0.15800
H768        H  0.27181567  0.79601851  0.99048429     0.09400
H769        H  0.19580135  0.78544573  0.33979785     0.07300
H770        H  0.18061533  0.76547525  0.37961361     0.08500
H771        H  0.19803422  0.74395505  0.34383099     0.07500
H772        H  0.31855707  0.79385586  0.45901575     0.02400
H773        H  0.32516401  0.81879154  0.41975302     0.02900
H774        H  0.33667281  0.77887500  0.41910435     0.06400
H775        H  0.24849041  0.89786454  0.40160533     0.05400
H776        H  0.22971464  0.86139785  0.39002487    -0.00400
H777        H  0.27154242  0.86623063  0.38592595     0.01100
H778        H  0.26330950  0.81027904  0.05800576     0.04700
H779        H  0.27629458  0.84891545  0.07162115     0.06700
H780        H  0.30253060  0.82363040  0.04865323     0.07600
C781        C  0.35904426  0.69056433  0.40791584    -0.22100
C782        C  0.34974834  0.68167941  0.44277885     0.09900
C783        C  0.31791837  0.67811250  0.45052958     0.10300
C784        C  0.29631046  0.68205714  0.42233874    -0.17000
C785        C  0.30481265  0.68922663  0.38605100    -0.27400
C786        C  0.33757054  0.69595354  0.38001971     0.18600
C787        C  0.37426871  0.67929489  0.47089752     0.12600
C788        C  0.30673699  0.67009434  0.48844649    -0.11800
H789        H  0.27231142  0.67965513  0.42900058     0.12900
C790        C  0.35263120  0.71195459  0.34779363    -0.22600
H791        H  0.38370882  0.69499975  0.40296497     0.08500
C792        C  0.39375832  0.65347919  0.47219259     0.04900
C793        C  0.41957599  0.65424594  0.49561109    -0.19800
C794        C  0.42698173  0.68057704  0.01713022    -0.12100
C795        C  0.40696412  0.70641520  0.01586928     0.13600
C796        C  0.38095961  0.70524990  0.99271202    -0.22500
C797        C  0.38741624  0.62529995  0.44847566    -0.05600
H798        H  0.43448694  0.63432026  0.49633614     0.15100
C799        C  0.41235825  0.73533950  0.03876950    -0.15800
H800        H  0.36610353  0.72519038  0.99088367     0.09400
H801        H  0.33694978  0.71805764  0.32648310     0.07300
H802        H  0.37072581  0.69705910  0.33585780     0.08500
H803        H  0.36411622  0.73423178  0.35682590     0.07500
H804        H  0.31433603  0.68899247  0.00747971     0.02400
H805        H  0.31680692  0.64781196  0.49733325     0.02900
H806        H  0.28097287  0.66739992  0.48972445     0.06400
H807        H  0.40427819  0.60666744  0.45352478     0.05400
H808        H  0.38898907  0.63197404  0.41925406    -0.00400
H809        H  0.36369970  0.61570796  0.45424370     0.01100
H810        H  0.43445470  0.74746524  0.03055029     0.04700
H811        H  0.41310826  0.72893923  0.06810989     0.06700
H812        H  0.39350934  0.75224087  0.03528315     0.07600
C813        C  0.08533826  0.70211460  0.44871518    -0.22100
C814        C  0.11232047  0.68507365  0.45369942     0.09900
C815        C  0.11428913  0.66513897  0.98409921     0.10300
C816        C  0.08961652  0.66312376  0.00929299    -0.17000
C817        C  0.06332958  0.68148896  0.00559137    -0.27400
C818        C  0.06058194  0.70012676  0.47393714     0.18600
C819        C  0.13887898  0.68914799  0.42777997     0.12600
C820        C  0.14253451  0.64582619  0.99000052    -0.11800
H821        H  0.09132663  0.64785152  0.03273695     0.12900
C822        C  0.03182640  0.71804747  0.46554100    -0.22600
H823        H  0.08360358  0.71710169  0.42502055     0.08500
C824        C  0.14180957  0.67035509  0.39670264     0.04900
C825        C  0.16966506  0.67172875  0.37649595    -0.19800
C826        C  0.19547095  0.69160239  0.38555643    -0.12100
C827        C  0.19213388  0.70967103  0.41863462     0.13600
C828        C  0.16351523  0.70932130  0.43743731    -0.22500
C829        C  0.11561700  0.64842486  0.38506983    -0.05600
H830        H  0.17059868  0.65725645  0.35277328     0.15100
C831        C  0.21820912  0.72493320  0.44034798    -0.15800
H832        H  0.16139252  0.72277576  0.46239221     0.09400
H833        H  0.02296623  0.71116012  0.43815542     0.07300
H834        H  0.03769534  0.74346875  0.46541766     0.08500
H835        H  0.01347903  0.71554126  0.98625060     0.07500
H836        H  0.16342920  0.66140895  0.99345425     0.02400
H837        H  0.14655291  0.63050678  0.46704353     0.02900
H838        H  0.14015930  0.63098326  0.01474576     0.06400
H839        H  0.12152286  0.63530336  0.35996087     0.05400
H840        H  0.09453228  0.66192589  0.37941484    -0.00400
H841        H  0.11035527  0.63126793  0.40709162     0.01100
H842        H  0.21492833  0.75034662  0.44278896     0.04700
H843        H  0.24129926  0.71951588  0.43003788     0.06700
H844        H  0.21775705  0.71577217  0.46873328     0.07600
C845        C  0.24576259  0.52397669  0.44319306    -0.22100
C846        C  0.26975733  0.54681197  0.44467765     0.09900
C847        C  0.29183547  0.54565937  0.97329409     0.10300
C848        C  0.28810079  0.52294697  0.00086467    -0.17000
C849        C  0.26257511  0.00155285  0.00101811    -0.27400
C850        C  0.24173955  0.00147542  0.47093748     0.18600
C851        C  0.26624384  0.57573243  0.42270160     0.12600
C852        C  0.31853650  0.56910297  0.97520836    -0.11800
H853        H  0.30453299  0.52280079  0.02324071     0.12900
C854        C  0.21518862  0.97786392  0.46750787    -0.22600
H855        H  0.22887384  0.52504351  0.42133153     0.08500
C856        C  0.27633204  0.57966737  0.38656860     0.04900
C857        C  0.26994859  0.60763571  0.36794463    -0.19800
C858        C  0.25322023  0.63248684  0.38360920    -0.12100
C859        C  0.24089764  0.62589201  0.41963077     0.13600
C860        C  0.24906726  0.59888757  0.43855450    -0.22500
C861        C  0.29369785  0.55434527  0.36761975    -0.05600
H862        H  0.27747244  0.60902413  0.34016614     0.15100
C863        C  0.21737149  0.64425225  0.43949919    -0.15800
H864        H  0.24044692  0.59464359  0.46604008     0.09400
H865        H  0.20300458  0.97985491  0.44094625     0.07300
H866        H  0.19777983  0.98151410  0.48935203     0.08500
H867        H  0.22409188  0.95400954  0.96909940     0.07500
H868        H  0.30908843  0.59331665  0.47717467     0.02400
H869        H  0.33293228  0.56724263  0.95016576     0.02900
H870        H  0.33363409  0.56511326  0.99920661     0.06400
H871        H  0.30012553  0.56096726  0.33922034     0.05400
H872        H  0.27894122  0.53263594  0.36655233    -0.00400
H873        H  0.31537798  0.54969047  0.38280883     0.01100
H874        H  0.21240463  0.63565834  0.46757431     0.04700
H875        H  0.19498496  0.64179735  0.42535449     0.06700
H876        H  0.22612455  0.66788201  0.44350466     0.07600
C877        C  0.25008808  0.66385713  0.86019360    -0.02100
C878        C  0.22514630  0.69053649  0.86008777    -0.02100
C879        C  0.27732963  0.69005197  0.85761288    -0.02100
C880        C  0.25212746  0.71638068  0.85699101    -0.02100
C881        C  0.24895559  0.66261414  0.81694125    -0.02100
C882        C  0.22428666  0.68901159  0.81643815    -0.02100
C883        C  0.27623886  0.68827569  0.81477731    -0.02100
C884        C  0.25112279  0.71486082  0.81435846    -0.02100
O885        O  0.02933234  0.65344469  0.54704887    -0.74000
O886        O  0.46792643  0.65101471  0.62348685    -0.74100
O887        O  0.46586368  0.65348744  0.55034460    -0.74100
O888        O  0.03152324  0.65098177  0.62123192    -0.74200
O889        O  0.03363280  0.70284273  0.62290583    -0.74100
O890        O  0.46724559  0.70534051  0.55352315    -0.74100
O891        O  0.47044958  0.70301914  0.62672945    -0.74000
O892        O  0.03032440  0.70548369  0.54884546    -0.74100
Ni893      Ni  0.49873691  0.65036644  0.58545200     1.25400
Ni894      Ni  0.50059787  0.70598675  0.58808746     1.25400
C895        C  0.03956169  0.67991320  0.53493552     0.88200
C896        C  0.45835054  0.67669792  0.63674543     0.88100
C897        C  0.45481557  0.67987009  0.54135768     0.88100
C898        C  0.04350992  0.67651704  0.63393515     0.88300
O899        O  0.27399866  0.97211080  0.62430715    -0.74000
O900        O  0.28179170  0.90743370  0.55184982    -0.74100
O901        O  0.28264476  0.97069780  0.54997440    -0.74100
O902        O  0.27337659  0.90874014  0.62566816    -0.74200
O903        O  0.22200563  0.90707945  0.61723696    -0.74100
O904        O  0.23132390  0.96971834  0.54230210    -0.74100
O905        O  0.23040047  0.90685160  0.54344691    -0.74000
O906        O  0.22270996  0.97067648  0.61646011    -0.74100
Ni907      Ni  0.27977186  0.93985534  0.58828302     1.25400
Ni908      Ni  0.22480366  0.93861436  0.57968287     1.25400
C909        C  0.24695369  0.98183460  0.63278321     0.88200
C910        C  0.25734117  0.89685979  0.53542184     0.88100
C911        C  0.25856900  0.97964884  0.53268642     0.88100
C912        C  0.24624922  0.89740883  0.63357138     0.88300
C913        C  0.23303719  0.81886961  0.68100907    -0.22100
C914        C  0.24288477  0.82569755  0.71672954     0.09900
C915        C  0.25161768  0.85699192  0.72550185     0.10300
C916        C  0.25267404  0.87979980  0.69773088    -0.17000
C917        C  0.24320271  0.87271449  0.66192218    -0.27400
C918        C  0.23189599  0.84207479  0.65399589     0.18600
C919        C  0.24398941  0.79955617  0.74389841     0.12600
C920        C  0.25839309  0.86682430  0.76427010    -0.11800
H921        H  0.26038201  0.90350698  0.70414790     0.12900
C922        C  0.21865827  0.83265788  0.61747119    -0.22600
H923        H  0.22633378  0.79502761  0.67393457     0.08500
C924        C  0.21748677  0.78106202  0.75302209     0.04900
C925        C  0.22054748  0.75470431  0.77551057    -0.19800
C926        C  0.24905417  0.74617675  0.79139059    -0.12100
C927        C  0.27423694  0.76843382  0.78639593     0.13600
C928        C  0.27207510  0.79289261  0.76093696    -0.22500
C929        C  0.18546483  0.78994009  0.74078321    -0.05600
H930        H  0.19946446  0.74239805  0.78208333     0.15100
C931        C  0.30392677  0.76774982  0.80710086    -0.15800
H932        H  0.29261827  0.80725514  0.75482668     0.09400
H933        H  0.19362045  0.82612277  0.62075367     0.07300
H934        H  0.23077217  0.81193133  0.60726912     0.08500
H935        H  0.22078230  0.85126955  0.59660603     0.07500
H936        H  0.27959705  0.85577039  0.77453537     0.02400
H937        H  0.23832594  0.86005708  0.78201217     0.02900
H938        H  0.26226226  0.89251126  0.76651825     0.06400
H939        H  0.16702193  0.77494180  0.75363042     0.05400
H940        H  0.18306533  0.78750850  0.71082831    -0.00400
H941        H  0.18123709  0.81444536  0.74882126     0.01100
H942        H  0.32380825  0.76396380  0.78839679     0.04700
H943        H  0.30230346  0.74934639  0.82733754     0.06700
H944        H  0.30786238  0.79018797  0.82184083     0.07600
C945        C  0.37812029  0.66354383  0.67886727    -0.22100
C946        C  0.38164603  0.67950854  0.71205561     0.09900
C947        C  0.41063297  0.69390228  0.72090242     0.10300
C948        C  0.43549265  0.69230285  0.69607996    -0.17000
C949        C  0.43209123  0.67622851  0.66288948    -0.27400
C950        C  0.40296734  0.66185398  0.65402980     0.18600
C951        C  0.35461942  0.68129749  0.73710797     0.12600
C952        C  0.41511701  0.71125092  0.75636844    -0.11800
H953        H  0.45769027  0.70362970  0.70257149     0.12900
C954        C  0.39755234  0.64605672  0.61771340    -0.22600
H955        H  0.35569414  0.65276960  0.67221598     0.08500
C956        C  0.33179894  0.70365313  0.73257482     0.04900
C957        C  0.30748705  0.70528477  0.75802746    -0.19800
C958        C  0.30498536  0.68560682  0.78892964    -0.12100
C959        C  0.32833018  0.66245164  0.79234420     0.13600
C960        C  0.35230925  0.66068187  0.76638587    -0.22500
C961        C  0.33296763  0.72577507  0.70060521    -0.05600
H962        H  0.28979194  0.72140021  0.75207480     0.15100
C963        C  0.33018173  0.63929403  0.82272783    -0.15800
H964        H  0.36996383  0.64331441  0.76946644     0.09400
H965        H  0.37312928  0.63719735  0.61480001     0.07300
H966        H  0.41295295  0.62588913  0.61485841     0.08500
H967        H  0.40242131  0.66294178  0.59529061     0.07500
H968        H  0.41104919  0.69503309  0.77962468     0.02400
H969        H  0.39843716  0.73047973  0.75812782     0.02900
H970        H  0.43904867  0.72153305  0.75884353     0.06400
H971        H  0.31343490  0.74215454  0.70115250     0.05400
H972        H  0.33152806  0.71233198  0.67472150    -0.00400
H973        H  0.35510390  0.73981234  0.70111892     0.01100
H974        H  0.35360637  0.64074907  0.83545354     0.04700
H975        H  0.32624003  0.61530024  0.81185914     0.06700
H976        H  0.31362485  0.64384949  0.84431115     0.07600
C977        C  0.17390366  0.67740763  0.72759491    -0.22100
C978        C  0.14384718  0.68106919  0.74071704     0.09900
C979        C  0.13980003  0.69000209  0.77727526     0.10300
C980        C  0.16601669  0.69421084  0.79989389    -0.17000
C981        C  0.19640087  0.68682334  0.78867961    -0.27400
C982        C  0.20000923  0.68172665  0.75021548     0.18600
C983        C  0.11770355  0.67994295  0.71417342     0.12600
C984        C  0.10784009  0.69569635  0.79228623    -0.11800
H985        H  0.16259195  0.70588980  0.82539596     0.12900
C986        C  0.23013642  0.68527815  0.73007574    -0.22600
H987        H  0.17714047  0.67313704  0.69865177     0.08500
C988        C  0.10972453  0.70670058  0.69433149     0.04900
C989        C  0.08561061  0.70462919  0.66862558    -0.19800
C990        C  0.06923489  0.67627256  0.66153725    -0.12100
C991        C  0.07779881  0.64918734  0.68120601     0.13600
C992        C  0.10185340  0.65151142  0.70727327    -0.22500
C993        C  0.12683393  0.73751223  0.70013890    -0.05600
H994        H  0.07975915  0.72547674  0.65373722     0.15100
C995        C  0.06183545  0.61775921  0.67544300    -0.15800
H996        H  0.10852767  0.63097887  0.72227695     0.09400
H997        H  0.22928372  0.70558804  0.71130804     0.07300
H998        H  0.23435851  0.66409542  0.71357230     0.08500
H999        H  0.24930633  0.68972714  0.74864903     0.07500
H1000       H  0.09313876  0.67403183  0.78979628     0.02400
H1001       H  0.09686117  0.71471812  0.77689431     0.02900
H1002       H  0.10867210  0.70241862  0.82155880     0.06400
H1003       H  0.11790703  0.75610094  0.68221827     0.05400
H1004       H  0.15195057  0.73506631  0.69407788     0.01200
H1005       H  0.12397844  0.74509075  0.72885056     0.01100
H1006       H  0.06554344  0.60978987  0.64697840     0.04700
H1007       H  0.03656427  0.61928683  0.68118663     0.06700
H1008       H  0.07116416  0.59969193  0.69381250     0.07600
C1009       C  0.22262802  0.58136452  0.77297394    -0.22100
C1010       C  0.24330434  0.57920485  0.74358908     0.09900
C1011       C  0.26430640  0.60420146  0.73696346     0.10300
C1012       C  0.26529102  0.62975574  0.76079364    -0.17000
C1013       C  0.24569340  0.63262956  0.79166343    -0.27400
C1014       C  0.22344445  0.60735869  0.79692731     0.18600
C1015       C  0.24194972  0.55170842  0.71851115     0.12600
C1016       C  0.28468274  0.60499001  0.70323545    -0.11800
H1017       H  0.27999619  0.64843827  0.75190540     0.12900
C1018       C  0.20045473  0.60569392  0.82761410    -0.22600
H1019       H  0.20582690  0.56235755  0.77754088     0.08500
C1020       C  0.26514696  0.52907608  0.71886844     0.04900
C1021       C  0.26622101  0.00686786  0.69054324    -0.19800
C1022       C  0.24389970  0.00576301  0.66242267    -0.12100
C1023       C  0.21944415  0.52736651  0.66359027     0.13600
C1024       C  0.21908120  0.55020064  0.69132354    -0.22500
C1025       C  0.28843003  0.52803226  0.74955239    -0.05600
H1026       H  0.28447791  0.98998285  0.69064720     0.15100
C1027       C  0.19415582  0.52739960  0.63518024    -0.15800
H1028       H  0.20127127  0.56757195  0.69130519     0.09400
H1029       H  0.20290607  0.58350837  0.84287177     0.07300
H1030       H  0.17643768  0.60670458  0.81668967     0.08500
H1031       H  0.20431924  0.62450642  0.84712061     0.07500
H1032       H  0.26986128  0.60366459  0.67848064     0.02400
H1033       H  0.30054705  0.58510667  0.70311679     0.02900
H1034       H  0.29934486  0.62675696  0.70149596     0.06400
H1035       H  0.30475274  0.50867036  0.74593220     0.05400
H1036       H  0.27594059  0.52440680  0.77583616    -0.00400
H1037       H  0.30238951  0.55017295  0.75116095     0.01100
H1038       H  0.18010106  0.50526589  0.63661979     0.04700
H1039       H  0.20458606  0.03016511  0.60758252     0.06700
H1040       H  0.17800173  0.54682043  0.63945428     0.07600
C1041       C  0.23316249  0.79726185  0.90001179    -0.22100
C1042       C  0.26051967  0.80428849  0.91952614     0.09900
C1043       C  0.28652708  0.78578435  0.91353290     0.10300
C1044       C  0.28323253  0.75862541  0.89240869    -0.17000
C1045       C  0.25499980  0.74922170  0.87543948    -0.27400
C1046       C  0.23026021  0.77069592  0.87734592     0.18600
C1047       C  0.26068284  0.82896643  0.94841118     0.12600
C1048       C  0.31822907  0.79497106  0.92849086    -0.11800
H1049       H  0.30365023  0.74548547  0.88875751     0.12900
C1050       C  0.19936216  0.76571452  0.85890853    -0.22600
H1051       H  0.21300705  0.81138137  0.90434384     0.08500
C1052       C  0.25430011  0.86053779  0.94104920     0.04900
C1053       C  0.25310861  0.88196568  0.97015669    -0.19800
C1054       C  0.26002672  0.87325511  0.50615001    -0.12100
C1055       C  0.26811148  0.84213780  0.51323828     0.13600
C1056       C  0.26736186  0.82030240  0.48466584    -0.22500
C1057       C  0.25006028  0.87207381  0.90257935    -0.05600
H1058       H  0.24763336  0.90598356  0.96467676     0.15100
C1059       C  0.27758003  0.83094339  0.55038611    -0.15800
H1060       H  0.27177870  0.79606672  0.49073202     0.09400
H1061       H  0.19545378  0.78522104  0.83968705     0.07300
H1062       H  0.18038936  0.76519339  0.87951915     0.08500
H1063       H  0.19783732  0.74374025  0.84370621     0.07500
H1064       H  0.31840120  0.79393578  0.95867141     0.02400
H1065       H  0.32476692  0.81904215  0.91950660     0.02900
H1066       H  0.33647973  0.77919706  0.91861702     0.06400
H1067       H  0.24752458  0.89779111  0.90175226     0.05400
H1068       H  0.22888538  0.86126432  0.89016322    -0.00400
H1069       H  0.27068051  0.86631457  0.88586031     0.01100
H1070       H  0.26260424  0.81050916  0.55819974     0.04700
H1071       H  0.27589506  0.84903413  0.57185111     0.06700
H1072       H  0.30204215  0.82341513  0.54927695     0.07600
C1073       C  0.35910346  0.69045016  0.90764667    -0.22100
C1074       C  0.34983683  0.68158927  0.94253145     0.09900
C1075       C  0.31800524  0.67810165  0.95033245     0.10300
C1076       C  0.29635562  0.68204292  0.92217292    -0.17000
C1077       C  0.30483954  0.68926070  0.88588317    -0.27400
C1078       C  0.33759634  0.69594406  0.87981034     0.18600
C1079       C  0.37437554  0.67924457  0.97065205     0.12600
C1080       C  0.30684504  0.67018065  0.98828338    -0.11800
H1081       H  0.27238299  0.67956249  0.92885145     0.12900
C1082       C  0.35262148  0.71199168  0.84759445    -0.22600
H1083       H  0.38376856  0.69482988  0.90264764     0.08500
C1084       C  0.39375153  0.65335015  0.97216896     0.04900
C1085       C  0.41953261  0.65411265  0.99566139    -0.19800
C1086       C  0.42694123  0.68063638  0.51722246    -0.12100
C1087       C  0.40681860  0.70639243  0.51620112     0.13600
C1088       C  0.38076975  0.70522362  0.49311581    -0.22500
C1089       C  0.38732181  0.62509116  0.94861482    -0.05600
H1090       H  0.43434544  0.63411808  0.99655924     0.15100
C1091       C  0.41215662  0.73522069  0.53928324    -0.15800
H1092       H  0.36582960  0.72510976  0.49145024     0.09400
H1093       H  0.33690501  0.71817229  0.82635581     0.07300
H1094       H  0.37066774  0.69709191  0.83556383     0.08500
H1095       H  0.36416287  0.73422783  0.85666889     0.07500
H1096       H  0.31412402  0.68890612  0.50769278     0.02400
H1097       H  0.31682859  0.64786240  0.99719028     0.02900
H1098       H  0.28107535  0.66760389  0.98961715     0.06400
H1099       H  0.40406824  0.60638927  0.95384667     0.05400
H1100       H  0.38899299  0.63162771  0.91935673    -0.00400
H1101       H  0.36354517  0.61565838  0.95435990     0.01100
H1102       H  0.43417797  0.74748385  0.53105439     0.04700
H1103       H  0.41303157  0.72867694  0.56857418     0.06700
H1104       H  0.39321882  0.75205109  0.53599737     0.07600
C1105       C  0.08596439  0.70337454  0.94959571    -0.22100
C1106       C  0.11253707  0.68561463  0.95400741     0.09900
C1107       C  0.11442569  0.66515973  0.48426649     0.10300
C1108       C  0.08979418  0.66317677  0.50950357    -0.17000
C1109       C  0.06316660  0.68095249  0.50529350    -0.27400
C1110       C  0.06119203  0.70141421  0.97480289     0.18600
C1111       C  0.13907037  0.68952069  0.92801255     0.12600
C1112       C  0.14294913  0.64634509  0.49056129    -0.11800
H1113       H  0.09177720  0.64840321  0.53334611     0.12900
C1114       C  0.03289813  0.72020830  0.96693683    -0.22600
H1115       H  0.08454333  0.71887734  0.92632100     0.08500
C1116       C  0.14179444  0.67074180  0.89688688     0.04900
C1117       C  0.16963226  0.67188280  0.87662598    -0.19800
C1118       C  0.19556597  0.69162602  0.88557194    -0.12100
C1119       C  0.19242379  0.70968992  0.91869957     0.13600
C1120       C  0.16386850  0.70949228  0.93762805    -0.22500
C1121       C  0.11535621  0.64913150  0.88521113    -0.05600
H1122       H  0.17045773  0.65731194  0.85296536     0.15100
C1123       C  0.21862742  0.72481257  0.94033587    -0.15800
H1124       H  0.16190350  0.72292630  0.96261938     0.09400
H1125       H  0.02405347  0.71430121  0.93924849     0.07300
H1126       H  0.03932201  0.74550046  0.96782667     0.08500
H1127       H  0.01262477  0.71352127  0.48520070     0.07500
H1128       H  0.16364939  0.66224146  0.49368538     0.02400
H1129       H  0.14596053  0.63029640  0.96616256     0.02900
H1130       H  0.14078656  0.63185278  0.51560902     0.06400
H1131       H  0.12107624  0.63603555  0.86002101     0.05400
H1132       H  0.09442089  0.66289419  0.87967292    -0.00400
H1133       H  0.10992999  0.63195035  0.90715504     0.01100
H1134       H  0.21543648  0.75023008  0.94289965     0.04700
H1135       H  0.24165348  0.71938066  0.92987593     0.06700
H1136       H  0.21825720  0.71557933  0.96868931     0.07600
C1137       C  0.24596479  0.52403531  0.94310972    -0.22100
C1138       C  0.27003540  0.54679133  0.94463070     0.09900
C1139       C  0.29154465  0.54583261  0.47336378     0.10300
C1140       C  0.28788780  0.52316523  0.50098542    -0.17000
C1141       C  0.26245734  0.00166404  0.50115323    -0.27400
C1142       C  0.24186464  0.00149420  0.97080205     0.18600
C1143       C  0.26659870  0.57576142  0.92268909     0.12600
C1144       C  0.31814326  0.56940207  0.47524431    -0.11800
H1145       H  0.30430523  0.52312922  0.52338060     0.12900
C1146       C  0.21524716  0.97797146  0.96730921    -0.22600
H1147       H  0.22907747  0.52519736  0.92125668     0.08500
C1148       C  0.27664395  0.57968873  0.88653317     0.04900
C1149       C  0.27011532  0.60759567  0.86783929    -0.19800
C1150       C  0.25333648  0.63242877  0.88347117    -0.12100
C1151       C  0.24105560  0.62582018  0.91950966     0.13600
C1152       C  0.24936365  0.59889119  0.93850464    -0.22500
C1153       C  0.29413112  0.55442382  0.86763936    -0.05600
H1154       H  0.27756013  0.60894503  0.84002930     0.15100
C1155       C  0.21741747  0.64408259  0.93930345    -0.15800
H1156       H  0.24076665  0.59465982  0.96600286     0.09400
H1157       H  0.20306847  0.98005610  0.94075589     0.07300
H1158       H  0.19785461  0.98162173  0.98917008     0.08500
H1159       H  0.22409997  0.95392977  0.46937451     0.07500
H1160       H  0.30958831  0.59305692  0.97722714     0.02400
H1161       H  0.33257092  0.56755598  0.45022536     0.02900
H1162       H  0.33323604  0.56553742  0.49927724     0.06400
H1163       H  0.30051736  0.56102589  0.83922193     0.05400
H1164       H  0.27948641  0.53263846  0.86663520    -0.00400
H1165       H  0.31584511  0.54991274  0.88283021     0.01100
H1166       H  0.21234997  0.63541612  0.96732628     0.04700
H1167       H  0.19509088  0.64160489  0.92502559     0.06700
H1168       H  0.22613437  0.66770325  0.94341069     0.07600
C1169       C  0.75002499  0.16389639  0.36033596    -0.02100
C1170       C  0.72513225  0.19061163  0.36022438    -0.02100
C1171       C  0.77731333  0.19004154  0.35776972    -0.02100
C1172       C  0.75216477  0.21641441  0.35716461    -0.02100
C1173       C  0.74889062  0.16263645  0.31709119    -0.02100
C1174       C  0.72427907  0.18908717  0.31658629    -0.02100
C1175       C  0.77621754  0.18826716  0.31493579    -0.02100
C1176       C  0.75116099  0.21490131  0.31452716    -0.02100
O1177       O  0.52946131  0.15370494  0.04715101    -0.74000
O1178       O  0.96787971  0.15078924  0.12345609    -0.74100
O1179       O  0.96594871  0.15345986  0.05029026    -0.74100
O1180       O  0.53150839  0.15100809  0.12137492    -0.74200
O1181       O  0.53338042  0.20286697  0.12328151    -0.74100
O1182       O  0.96717473  0.20529769  0.05363542    -0.74100
O1183       O  0.97019992  0.20278675  0.12684898    -0.74000
O1184       O  0.53030515  0.20572408  0.04924436    -0.74100
Ni1185     Ni  0.99878368  0.15037197  0.08548279     1.25400
Ni1186     Ni  0.00043779  0.20597790  0.08834210     1.25400
C1187       C  0.53965145  0.18025142  0.03520004     0.88200
C1188       C  0.95819226  0.17640551  0.13678481     0.88100
C1189       C  0.95483229  0.17982591  0.04134974     0.88100
C1190       C  0.54335080  0.17655593  0.13423028     0.88300
O1191       O  0.77391450  0.47213063  0.12419727    -0.74000
O1192       O  0.78159553  0.40725411  0.05188461    -0.74100
O1193       O  0.78261985  0.47053213  0.04987272    -0.74100
O1194       O  0.77320701  0.40873818  0.12570816    -0.74200
O1195       O  0.72183677  0.40712716  0.11728115    -0.74100
O1196       O  0.73130765  0.46966410  0.04215603    -0.74100
O1197       O  0.73021153  0.40678393  0.04347013    -0.74000
O1198       O  0.72263248  0.47077145  0.11632125    -0.74100
Ni1199     Ni  0.77964938  0.43976904  0.08825070     1.25400
Ni1200     Ni  0.72468938  0.43862246  0.07963101     1.25400
C1201       C  0.74688278  0.48193393  0.13262638     0.88200
C1202       C  0.75712281  0.39671220  0.03546103     0.88100
C1203       C  0.75858451  0.47952958  0.03254927     0.88100
C1204       C  0.74607547  0.39744323  0.13363352     0.88300
C1205       C  0.73356904  0.31873693  0.18090338    -0.22100
C1206       C  0.74315687  0.32563584  0.21670061     0.09900
C1207       C  0.75145293  0.35701166  0.22558188     0.10300
C1208       C  0.75230471  0.37987782  0.19786507    -0.17000
C1209       C  0.74306367  0.37273364  0.16198569    -0.27400
C1210       C  0.73222322  0.34196312  0.15393342     0.18600
C1211       C  0.74425195  0.29951100  0.24389740     0.12600
C1212       C  0.75800178  0.36683580  0.26440074    -0.11800
H1213       H  0.75969871  0.40365900  0.20436819     0.12900
C1214       C  0.71925829  0.33243845  0.11731999    -0.22600
H1215       H  0.72718362  0.29483148  0.17375478     0.08500
C1216       C  0.71775118  0.28096501  0.25286712     0.04900
C1217       C  0.72072672  0.25471051  0.27552889    -0.19800
C1218       C  0.74917925  0.24621789  0.29155048    -0.12100
C1219       C  0.77438461  0.26846736  0.28661522     0.13600
C1220       C  0.77227079  0.29295081  0.26116184    -0.22500
C1221       C  0.68579252  0.28965107  0.24021291    -0.05600
H1222       H  0.69962631  0.24245308  0.28208108     0.15100
C1223       C  0.80405354  0.26773216  0.30735949    -0.15800
H1224       H  0.79279647  0.30738625  0.25519643     0.09400
H1225       H  0.69430136  0.32550940  0.12045874     0.07300
H1226       H  0.73172985  0.31193357  0.10712977     0.08500
H1227       H  0.72116634  0.35113414  0.09653391     0.07500
H1228       H  0.77929896  0.35597880  0.27470889     0.02400
H1229       H  0.73794993  0.35981348  0.28204291     0.02900
H1230       H  0.76158970  0.39254968  0.26673311     0.06400
H1231       H  0.66730949  0.27468228  0.25301825     0.05400
H1232       H  0.68363524  0.28699176  0.21025613    -0.00400
H1233       H  0.68141735  0.31419360  0.24795755     0.01100
H1234       H  0.82394159  0.26392803  0.28867049     0.04700
H1235       H  0.80239662  0.24930714  0.32757101     0.06700
H1236       H  0.80800606  0.29015260  0.32213051     0.07600
C1237       C  0.87803668  0.16305089  0.17910144    -0.22100
C1238       C  0.88146716  0.17939607  0.21205286     0.09900
C1239       C  0.91039998  0.19396481  0.22075314     0.10300
C1240       C  0.93526303  0.19226240  0.19595873    -0.17000
C1241       C  0.93196178  0.17584005  0.16298482    -0.27400
C1242       C  0.90293107  0.16115755  0.15434660     0.18600
C1243       C  0.85446538  0.18122252  0.23713232     0.12600
C1244       C  0.91483858  0.21156721  0.25605819    -0.11800
H1245       H  0.95739830  0.20378037  0.20230968     0.12900
C1246       C  0.89767524  0.14474102  0.11837569    -0.22600
H1247       H  0.85566854  0.15207886  0.17260037     0.08500
C1248       C  0.83159582  0.20352369  0.23256208     0.04900
C1249       C  0.80736055  0.20522303  0.25810491    -0.19800
C1250       C  0.80493558  0.18560305  0.28906498    -0.12100
C1251       C  0.82830393  0.16247627  0.29249336     0.13600
C1252       C  0.85225290  0.16069755  0.26650365    -0.22500
C1253       C  0.83260318  0.22548187  0.20043706    -0.05600
H1254       H  0.78963994  0.22131438  0.25215327     0.15100
C1255       C  0.83019081  0.13933366  0.32289590    -0.15800
H1256       H  0.86994552  0.14337256  0.26960905     0.09400
H1257       H  0.87330389  0.13569482  0.11558639     0.07300
H1258       H  0.91319390  0.12461640  0.11605499     0.08500
H1259       H  0.90250655  0.16126296  0.09557736     0.07500
H1260       H  0.91080783  0.19549801  0.27946266     0.02400
H1261       H  0.89811223  0.23076485  0.25763496     0.02900
H1262       H  0.93874887  0.22191857  0.25845134     0.06400
H1263       H  0.81302322  0.24180734  0.20095008     0.05400
H1264       H  0.83111694  0.21189606  0.17465673    -0.00400
H1265       H  0.85470340  0.23958113  0.20075614     0.01100
H1266       H  0.85361445  0.14082950  0.33562081     0.04700
H1267       H  0.82628667  0.11533037  0.31204033     0.06700
H1268       H  0.81361453  0.14384562  0.34447455     0.07600
C1269       C  0.67374310  0.17745899  0.22786838    -0.22100
C1270       C  0.64371805  0.18130565  0.24100928     0.09900
C1271       C  0.63975790  0.19039662  0.27753143     0.10300
C1272       C  0.66601433  0.19452665  0.30010736    -0.17000
C1273       C  0.69634906  0.18694727  0.28888193    -0.27400
C1274       C  0.69989033  0.18173276  0.25043576     0.18600
C1275       C  0.61753070  0.18014120  0.21450871     0.12600
C1276       C  0.60785153  0.19632327  0.29255440    -0.11800
H1277       H  0.66266514  0.20623237  0.32561654     0.12900
C1278       C  0.73001208  0.18509021  0.23025409    -0.22600
H1279       H  0.67693124  0.17306713  0.19894330     0.08500
C1280       C  0.60962684  0.20682467  0.19448163     0.04900
C1281       C  0.58550222  0.20470270  0.16879129    -0.19800
C1282       C  0.56904396  0.17636152  0.16188168    -0.12100
C1283       C  0.57750399  0.14935302  0.18175638     0.13600
C1284       C  0.60157168  0.15172729  0.20781233    -0.22500
C1285       C  0.62683165  0.23761102  0.20006267    -0.05600
H1286       H  0.57971981  0.22549310  0.15375221     0.15100
C1287       C  0.56139441  0.11796656  0.17623688    -0.15800
H1288       H  0.60817448  0.13124583  0.22295887     0.09400
H1289       H  0.72922984  0.20533909  0.21139070     0.07300
H1290       H  0.73413071  0.16383047  0.21384712     0.08500
H1291       H  0.74921152  0.18953545  0.24879402     0.07500
H1292       H  0.59302453  0.17473474  0.29017011     0.02400
H1293       H  0.59697325  0.21536606  0.27709509     0.02900
H1294       H  0.60874734  0.20312826  0.32180023     0.06400
H1295       H  0.61796438  0.25613518  0.18200639     0.05400
H1296       H  0.65193598  0.23504833  0.19401995     0.01200
H1297       H  0.62399308  0.24534812  0.22871681     0.01100
H1298       H  0.56509838  0.10979452  0.14785220     0.04700
H1299       H  0.53612641  0.11966323  0.18190375     0.06700
H1300       H  0.57060773  0.09997097  0.19478853     0.07600
C1301       C  0.72233257  0.08144889  0.27296117    -0.22100
C1302       C  0.74304361  0.07924678  0.24360872     0.09900
C1303       C  0.76413935  0.10418476  0.23709240     0.10300
C1304       C  0.76521287  0.12967045  0.26101463    -0.17000
C1305       C  0.74557399  0.13261848  0.29182629    -0.27400
C1306       C  0.72323299  0.10739956  0.29700066     0.18600
C1307       C  0.74171054  0.05175502  0.21848776     0.12600
C1308       C  0.78449038  0.10501167  0.20334267    -0.11800
H1309       H  0.78001982  0.14830409  0.25219513     0.12900
C1310       C  0.70025383  0.10570930  0.32769461    -0.22600
H1311       H  0.70546066  0.06249188  0.27746091     0.08500
C1312       C  0.76498579  0.02919431  0.21875971     0.04900
C1313       C  0.76614163  0.50705398  0.19036008    -0.19800
C1314       C  0.74383142  0.50592304  0.16222998    -0.12100
C1315       C  0.71934897  0.02750557  0.16341051     0.13600
C1316       C  0.71888035  0.05025617  0.19124905    -0.22500
C1317       C  0.78827025  0.02813830  0.24944380    -0.05600
H1318       H  0.78444453  0.49021964  0.19043363     0.15100
C1319       C  0.69416731  0.02763867  0.13487334    -0.15800
H1320       H  0.70103532  0.06759097  0.19125229     0.09400
H1321       H  0.70251549  0.08338635  0.34272897     0.07300
H1322       H  0.67624609  0.10700801  0.31680898     0.08500
H1323       H  0.70432195  0.12431729  0.34741031     0.07500
H1324       H  0.76963974  0.10381850  0.17860659     0.02400
H1325       H  0.80029155  0.08508033  0.20309830     0.02900
H1326       H  0.79922001  0.12673823  0.20167474     0.06400
H1327       H  0.80470574  0.00888994  0.24570328     0.05400
H1328       H  0.77578884  0.02432049  0.27569814    -0.00400
H1329       H  0.80211644  0.05033802  0.25121189     0.01100
H1330       H  0.68009216  0.00551159  0.13614213     0.04700
H1331       H  0.70470492  0.53048579  0.10734336     0.06700
H1332       H  0.67800976  0.04705769  0.13914335     0.07600
C1333       C  0.73347751  0.29737975  0.40016749    -0.22100
C1334       C  0.76083892  0.30432148  0.41970411     0.09900
C1335       C  0.78677243  0.28570781  0.41379466     0.10300
C1336       C  0.78339588  0.25855383  0.39267766    -0.17000
C1337       C  0.75514895  0.24923570  0.37566641    -0.27400
C1338       C  0.73049758  0.27080574  0.37752556     0.18600
C1339       C  0.76106424  0.32904210  0.44852481     0.12600
C1340       C  0.81847955  0.29478062  0.42882862    -0.11800
H1341       H  0.80378579  0.24538756  0.38902019     0.12900
C1342       C  0.69961257  0.26592781  0.35903503    -0.22600
H1343       H  0.71338357  0.31160002  0.40443639     0.08500
C1344       C  0.75492189  0.36064737  0.44104341     0.04900
C1345       C  0.75372329  0.38213205  0.47009010    -0.19800
C1346       C  0.75973667  0.37311401  0.00614412    -0.12100
C1347       C  0.76808619  0.34204827  0.01308773     0.13600
C1348       C  0.76723568  0.32023163  0.98449070    -0.22500
C1349       C  0.75089338  0.37213223  0.40251925    -0.05600
H1350       H  0.74845109  0.40619003  0.46452191     0.15100
C1351       C  0.77799207  0.33089097  0.05008324    -0.15800
H1352       H  0.77181681  0.29601899  0.99048411     0.09400
H1353       H  0.69580114  0.28544565  0.33979825     0.07300
H1354       H  0.68061517  0.26547514  0.37961402     0.08500
H1355       H  0.69803394  0.24395494  0.34383134     0.07500
H1356       H  0.81855661  0.29385455  0.45901678     0.02400
H1357       H  0.82516393  0.31879085  0.41975466     0.02900
H1358       H  0.83667256  0.27887425  0.41910525     0.06400
H1359       H  0.74849033  0.39786406  0.40160559     0.05400
H1360       H  0.72971479  0.36139733  0.39002497    -0.00400
H1361       H  0.77154257  0.36623023  0.38592643     0.01100
H1362       H  0.76330971  0.31027931  0.05800568     0.04700
H1363       H  0.77629461  0.34891570  0.07162121     0.06700
H1364       H  0.80253088  0.32363079  0.04865351     0.07600
C1365       C  0.85904402  0.19056360  0.40791583    -0.22100
C1366       C  0.84974810  0.18167913  0.44277898     0.09900
C1367       C  0.81791810  0.17811286  0.45052993     0.10300
C1368       C  0.79631024  0.18205736  0.42233905    -0.17000
C1369       C  0.80481236  0.18922651  0.38605124    -0.27400
C1370       C  0.83757026  0.19595313  0.38001984     0.18600
C1371       C  0.87426854  0.17929472  0.47089759     0.12600
C1372       C  0.80673671  0.17009561  0.48844709    -0.11800
H1373       H  0.77231111  0.17965554  0.42900097     0.12900
C1374       C  0.85263090  0.21195438  0.34779391    -0.22600
H1375       H  0.88370861  0.19499865  0.40296479     0.08500
C1376       C  0.89375816  0.15347901  0.47219279     0.04900
C1377       C  0.91957567  0.15424574  0.49561152    -0.19800
C1378       C  0.92698140  0.18057779  0.01713042    -0.12100
C1379       C  0.90696309  0.20641541  0.01587050     0.13600
C1380       C  0.88095837  0.20524992  0.99271353    -0.22500
C1381       C  0.88741636  0.12529984  0.44847566    -0.05600
H1382       H  0.93448651  0.13431998  0.49633681     0.15100
C1383       C  0.91235665  0.23533927  0.03877161    -0.15800
H1384       H  0.86610180  0.22519008  0.99088591     0.09400
H1385       H  0.83694936  0.21805774  0.32648359     0.07300
H1386       H  0.87072537  0.19705893  0.33585775     0.08500
H1387       H  0.86411605  0.23423144  0.35682640     0.07500
H1388       H  0.81433493  0.18899241  0.00748050     0.02400
H1389       H  0.81680624  0.14781319  0.49733439     0.02900
H1390       H  0.78097255  0.16740173  0.48972525     0.06400
H1391       H  0.90427823  0.10666730  0.45352499     0.05400
H1392       H  0.88898953  0.13197401  0.41925410    -0.00400
H1393       H  0.86369974  0.11570786  0.45424326     0.01100
H1394       H  0.93445270  0.24746581  0.03055249     0.04700
H1395       H  0.91310714  0.22893829  0.06811176     0.06700
H1396       H  0.89350721  0.25224018  0.03528613     0.07600
C1397       C  0.58533808  0.20211432  0.44871591    -0.22100
C1398       C  0.61232013  0.18507308  0.45369994     0.09900
C1399       C  0.61428834  0.16513951  0.98409879     0.10300
C1400       C  0.58961591  0.16312462  0.00929276    -0.17000
C1401       C  0.56332926  0.18149026  0.00559157    -0.27400
C1402       C  0.56058173  0.20012651  0.47393785     0.18600
C1403       C  0.63887870  0.18914744  0.42778049     0.12600
C1404       C  0.64253345  0.14582624  0.98999972    -0.11800
H1405       H  0.59132593  0.14785219  0.03273659     0.12900
C1406       C  0.53182635  0.21804749  0.46554180    -0.22600
H1407       H  0.58360353  0.21710162  0.42502144     0.08500
C1408       C  0.64180933  0.17035464  0.39670307     0.04900
C1409       C  0.66966477  0.17172851  0.37649624    -0.19800
C1410       C  0.69547062  0.19160220  0.38555670    -0.12100
C1411       C  0.69213350  0.20967078  0.41863496     0.13600
C1412       C  0.66351488  0.20932085  0.43743777    -0.22500
C1413       C  0.61561685  0.14842429  0.38507032    -0.05600
H1414       H  0.67059840  0.15725625  0.35277352     0.15100
C1415       C  0.71820864  0.22493315  0.44034827    -0.15800
H1416       H  0.66139215  0.22277527  0.46239270     0.09400
H1417       H  0.52296619  0.21116037  0.43815613     0.07300
H1418       H  0.53769546  0.24346874  0.46541867     0.08500
H1419       H  0.51347907  0.21554345  0.98625138     0.07500
H1420       H  0.66342841  0.16140865  0.99345332     0.02400
H1421       H  0.64655221  0.13050594  0.46704366     0.02900
H1422       H  0.64015818  0.13098321  0.01474487     0.06400
H1423       H  0.62152270  0.13530291  0.35996126     0.05400
H1424       H  0.59453203  0.16192521  0.37941549    -0.00400
H1425       H  0.61035531  0.13126725  0.40709205     0.01100
H1426       H  0.71492766  0.25034653  0.44278927     0.04700
H1427       H  0.74129881  0.21951599  0.43003812     0.06700
H1428       H  0.71775672  0.21577207  0.46873355     0.07600
C1429       C  0.74576290  0.02397654  0.44319336    -0.22100
C1430       C  0.76975737  0.04681209  0.44467812     0.09900
C1431       C  0.79183575  0.04565941  0.97329446     0.10300
C1432       C  0.78810103  0.02294679  0.00086481    -0.17000
C1433       C  0.76257529  0.50155270  0.00101783    -0.27400
C1434       C  0.74173926  0.50147539  0.47093687     0.18600
C1435       C  0.76624374  0.07573244  0.42270194     0.12600
C1436       C  0.81853734  0.06910237  0.97520842    -0.11800
H1437       H  0.80453354  0.02280007  0.02324051     0.12900
C1438       C  0.71518810  0.47786416  0.46750741    -0.22600
H1439       H  0.72887433  0.02504307  0.42133161     0.08500
C1440       C  0.77633213  0.07966745  0.38656901     0.04900
C1441       C  0.76994860  0.10763573  0.36794491    -0.19800
C1442       C  0.75322008  0.13248679  0.38360947    -0.12100
C1443       C  0.74089742  0.12589195  0.41963100     0.13600
C1444       C  0.74906701  0.09888750  0.43855470    -0.22500
C1445       C  0.79369833  0.05434553  0.36762034    -0.05600
H1446       H  0.77747246  0.10902416  0.34016647     0.15100
C1447       C  0.71737121  0.14425213  0.43949936    -0.15800
H1448       H  0.74044654  0.09464347  0.46604024     0.09400
H1449       H  0.70300383  0.47985542  0.44094598     0.07300
H1450       H  0.69777954  0.48151443  0.48935180     0.08500
H1451       H  0.72409262  0.45400875  0.96909964     0.07500
H1452       H  0.80908762  0.09331744  0.47717536     0.02400
H1453       H  0.83293271  0.06724196  0.95016549     0.02900
H1454       H  0.83363521  0.06511209  0.99920628     0.06400
H1455       H  0.80012618  0.06096758  0.33922100     0.05400
H1456       H  0.77894190  0.03263607  0.36655276    -0.00400
H1457       H  0.81537837  0.04969092  0.38280967     0.01100
H1458       H  0.71240439  0.13565827  0.46757450     0.04700
H1459       H  0.69498469  0.14179712  0.42535467     0.06700
H1460       H  0.72612426  0.16788192  0.44350480     0.07600
C1461       C  0.75008757  0.16385756  0.86019400    -0.02100
C1462       C  0.72514586  0.19053697  0.86008822    -0.02100
C1463       C  0.77732915  0.19005234  0.85761331    -0.02100
C1464       C  0.75212707  0.21638110  0.85699145    -0.02100
C1465       C  0.74895506  0.16261460  0.81694163    -0.02100
C1466       C  0.72428618  0.18901212  0.81643862    -0.02100
C1467       C  0.77623835  0.18827613  0.81477773    -0.02100
C1468       C  0.75112234  0.21486132  0.81435889    -0.02100
O1469       O  0.52933190  0.15344432  0.54704957    -0.74000
O1470       O  0.96792585  0.15101451  0.62348738    -0.74100
O1471       O  0.96586324  0.15348727  0.55034509    -0.74100
O1472       O  0.53152266  0.15098147  0.62123268    -0.74200
O1473       O  0.53363226  0.20284242  0.62290644    -0.74100
O1474       O  0.96724520  0.20534033  0.55352364    -0.74100
O1475       O  0.97044908  0.20301895  0.62672997    -0.74000
O1476       O  0.53032400  0.20548332  0.54884606    -0.74100
Ni1477     Ni  0.99873641  0.15036619  0.58545260     1.25400
Ni1478     Ni  0.00059741  0.20598649  0.58808799     1.25400
C1479       C  0.53956128  0.17991280  0.53493616     0.88200
C1480       C  0.95834998  0.17669775  0.63674594     0.88100
C1481       C  0.95481521  0.17986994  0.54135809     0.88100
C1482       C  0.54350934  0.17651677  0.63393586     0.88300
O1483       O  0.77399828  0.47211105  0.62430645    -0.74000
O1484       O  0.78179135  0.40743344  0.55184989    -0.74100
O1485       O  0.78264457  0.47069746  0.54997373    -0.74100
O1486       O  0.77337607  0.40874044  0.62566817    -0.74200
O1487       O  0.72200514  0.40707976  0.61723672    -0.74100
O1488       O  0.73132373  0.46971819  0.54230137    -0.74100
O1489       O  0.73040015  0.40685149  0.54344675    -0.74000
O1490       O  0.72270959  0.47067674  0.61645932    -0.74100
Ni1491     Ni  0.77977150  0.43985533  0.58828270     1.25400
Ni1492     Ni  0.72480332  0.43861444  0.57968238     1.25400
C1493       C  0.74695330  0.48183485  0.63278244     0.88200
C1494       C  0.75734082  0.39685952  0.53542192     0.88100
C1495       C  0.75856886  0.47964853  0.53268564     0.88100
C1496       C  0.74624866  0.39740922  0.63357136     0.88300
C1497       C  0.73303660  0.31887012  0.68100934    -0.22100
C1498       C  0.74288400  0.32569819  0.71672987     0.09900
C1499       C  0.75161670  0.35699263  0.72550211     0.10300
C1500       C  0.75267312  0.37980042  0.69773104    -0.17000
C1501       C  0.74320200  0.37271501  0.66192230    -0.27400
C1502       C  0.73189542  0.34207525  0.65399607     0.18600
C1503       C  0.74398870  0.29955683  0.74389884     0.12600
C1504       C  0.75839181  0.36682513  0.76427038    -0.11800
H1505       H  0.76038098  0.40350766  0.70414802     0.12900
C1506       C  0.71865783  0.33265820  0.61747134    -0.22600
H1507       H  0.72633333  0.29502809  0.67393487     0.08500
C1508       C  0.71748613  0.28106256  0.75302250     0.04900
C1509       C  0.72054689  0.25470486  0.77551105    -0.19800
C1510       C  0.74905365  0.24617732  0.79139101    -0.12100
C1511       C  0.77423637  0.26843446  0.78639629     0.13600
C1512       C  0.77207438  0.29289334  0.76093743    -0.22500
C1513       C  0.68546418  0.28994052  0.74078354    -0.05600
H1514       H  0.69946392  0.24239863  0.78208389     0.15100
C1515       C  0.80392633  0.26775040  0.80710097    -0.15800
H1516       H  0.79261750  0.30725599  0.75482720     0.09400
H1517       H  0.69362002  0.32612307  0.62075374     0.07300
H1518       H  0.73077181  0.31193167  0.60726938     0.08500
H1519       H  0.72078189  0.35126982  0.59660611     0.07500
H1520       H  0.77959565  0.35577121  0.77453599     0.02400
H1521       H  0.73832447  0.36005798  0.78201220     0.02900
H1522       H  0.76226094  0.39251211  0.76651847     0.06400
H1523       H  0.66702133  0.27494203  0.75363051     0.05400
H1524       H  0.68306481  0.28750908  0.71082861    -0.00400
H1525       H  0.68123627  0.31444572  0.74882175     0.01100
H1526       H  0.82380771  0.26396444  0.78839673     0.04700
H1527       H  0.80230312  0.24934685  0.82733747     0.06700
H1528       H  0.80786202  0.29018847  0.82184108     0.07600
C1529       C  0.87811909  0.16354497  0.67886647    -0.22100
C1530       C  0.88164513  0.17950838  0.71205563     0.09900
C1531       C  0.91063248  0.19390084  0.72090337     0.10300
C1532       C  0.93549232  0.19230143  0.69608108    -0.17000
C1533       C  0.93209055  0.17622836  0.66288980    -0.27400
C1534       C  0.90296626  0.16185515  0.65402916     0.18600
C1535       C  0.85461847  0.18129737  0.73710793     0.12600
C1536       C  0.91511682  0.21124814  0.75637023    -0.11800
H1537       H  0.95769024  0.20362726  0.70257335     0.12900
C1538       C  0.89755107  0.14605932  0.61771196    -0.22600
H1539       H  0.85569266  0.15277174  0.67221445     0.08500
C1540       C  0.83179830  0.20365340  0.73257515     0.04900
C1541       C  0.80748650  0.20528519  0.75802790    -0.19800
C1542       C  0.80498478  0.18560716  0.78893002    -0.12100
C1543       C  0.82832941  0.16245177  0.79234440     0.13600
C1544       C  0.85230817  0.16068170  0.76638576    -0.22500
C1545       C  0.83296727  0.22577572  0.70060592    -0.05600
H1546       H  0.78979153  0.22140079  0.75207542     0.15100
C1547       C  0.83018107  0.13929426  0.82272812    -0.15800
H1548       H  0.86996255  0.14331399  0.76946612     0.09400
H1549       H  0.87312781  0.13720073  0.61479794     0.07300
H1550       H  0.91295114  0.12589139  0.61485609     0.08500
H1551       H  0.90242066  0.16294506  0.59529005     0.07500
H1552       H  0.91104842  0.19502962  0.77962568     0.02400
H1553       H  0.89843754  0.23047741  0.75813041     0.02900
H1554       H  0.93904875  0.22152947  0.75884595     0.06400
H1555       H  0.81343490  0.24215561  0.70115362     0.05400
H1556       H  0.83152731  0.21233299  0.67472198    -0.00400
H1557       H  0.85510382  0.23981255  0.70111972     0.01100
H1558       H  0.85360582  0.14074925  0.83545359     0.04700
H1559       H  0.82623917  0.11530045  0.81185960     0.06700
H1560       H  0.81362438  0.14384988  0.84431160     0.07600
C1561       C  0.67390268  0.17740822  0.72759584    -0.22100
C1562       C  0.64384627  0.18106976  0.74071824     0.09900
C1563       C  0.63979932  0.19000278  0.77727646     0.10300
C1564       C  0.66601614  0.19421164  0.79989489    -0.17000
C1565       C  0.69640024  0.18682398  0.78868032    -0.27400
C1566       C  0.70000838  0.18172727  0.75021619     0.18600
C1567       C  0.61770250  0.17994332  0.71417479     0.12600
C1568       C  0.60783948  0.19569690  0.79228782    -0.11800
H1569       H  0.66259156  0.20589066  0.82539690     0.12900
C1570       C  0.73013544  0.18527881  0.73007616    -0.22600
H1571       H  0.67713933  0.17313763  0.69865270     0.08500
C1572       C  0.60972246  0.20670117  0.69433392     0.04900
C1573       C  0.58560869  0.20462958  0.66862778    -0.19800
C1574       C  0.56923421  0.17627245  0.66153815    -0.12100
C1575       C  0.57779926  0.14918700  0.68120576     0.13600
C1576       C  0.60185364  0.15151133  0.70727329    -0.22500
C1577       C  0.62683082  0.23751326  0.70014230    -0.05600
H1578       H  0.57975647  0.22547729  0.65374028     0.15100
C1579       C  0.56183750  0.11775832  0.67544106    -0.15800
H1580       H  0.60852881  0.13097861  0.72227602     0.09400
H1581       H  0.72928255  0.20558863  0.71130839     0.07300
H1582       H  0.73435755  0.16409603  0.71357282     0.08500
H1583       H  0.74930548  0.18972803  0.74864928     0.07500
H1584       H  0.59313825  0.17403229  0.78979811     0.02400
H1585       H  0.59686023  0.21471852  0.77689601     0.02900
H1586       H  0.60867170  0.20241926  0.82156035     0.06400
H1587       H  0.61790329  0.25610204  0.68222225     0.05400
H1588       H  0.65194756  0.23506830  0.69408118     0.01200
H1589       H  0.62397512  0.24509112  0.72885417     0.01100
H1590       H  0.56554589  0.10979031  0.64697602     0.04700
H1591       H  0.53656620  0.11928440  0.68118485     0.06700
H1592       H  0.57116713  0.09969082  0.69380959     0.07600
C1593       C  0.72262835  0.08136463  0.77297459    -0.22100
C1594       C  0.74330470  0.07920502  0.74358974     0.09900
C1595       C  0.76430638  0.10420192  0.73696393     0.10300
C1596       C  0.76529055  0.12975647  0.76079380    -0.17000
C1597       C  0.74569302  0.13263003  0.79166376    -0.27400
C1598       C  0.72344438  0.10735891  0.79692780     0.18600
C1599       C  0.74195020  0.05170857  0.71851176     0.12600
C1600       C  0.78468283  0.10499054  0.70323601    -0.11800
H1601       H  0.77999521  0.14843922  0.75190526     0.12900
C1602       C  0.70045459  0.10569406  0.82761453    -0.22600
H1603       H  0.70582742  0.06235749  0.77754163     0.08500
C1604       C  0.76514744  0.02907623  0.71886903     0.04900
C1605       C  0.76622052  0.50686785  0.69054253    -0.19800
C1606       C  0.74389926  0.50576312  0.66242195    -0.12100
C1607       C  0.71944461  0.02736658  0.66359088     0.13600
C1608       C  0.71908171  0.05020077  0.69132410    -0.22500
C1609       C  0.78843061  0.02803255  0.74955287    -0.05600
H1610       H  0.78447745  0.48998282  0.69064638     0.15100
C1611       C  0.69415638  0.02739977  0.63518074    -0.15800
H1612       H  0.70127182  0.06757213  0.69130569     0.09400
H1613       H  0.70290599  0.08350856  0.84287227     0.07300
H1614       H  0.67643755  0.10670458  0.81669001     0.08500
H1615       H  0.70431896  0.12450662  0.84712100     0.07500
H1616       H  0.76986148  0.10366465  0.67848113     0.02400
H1617       H  0.80054750  0.08510748  0.70311767     0.02900
H1618       H  0.79934459  0.12675771  0.70149634     0.06400
H1619       H  0.80475334  0.00867065  0.74593271     0.05400
H1620       H  0.77594126  0.02440718  0.77583671    -0.00400
H1621       H  0.80239006  0.05017327  0.75116124     0.01100
H1622       H  0.68010150  0.00526614  0.63662028     0.04700
H1623       H  0.70458526  0.53016520  0.60758206     0.06700
H1624       H  0.67800238  0.04682069  0.63945468     0.07600
C1625       C  0.73316265  0.29726225  0.90001226    -0.22100
C1626       C  0.76052002  0.30428894  0.91952616     0.09900
C1627       C  0.78652739  0.28578486  0.91353258     0.10300
C1628       C  0.78323254  0.25862579  0.89240868    -0.17000
C1629       C  0.75499965  0.24922207  0.87543986    -0.27400
C1630       C  0.73026015  0.27069636  0.87734642     0.18600
C1631       C  0.76068340  0.32896685  0.94841115     0.12600
C1632       C  0.81822961  0.29497183  0.92848969    -0.11800
H1633       H  0.80365023  0.24548586  0.88875722     0.12900
C1634       C  0.69936206  0.26571510  0.85890910    -0.22600
H1635       H  0.71300722  0.31138173  0.90434460     0.08500
C1636       C  0.75430021  0.36053809  0.94104927     0.04900
C1637       C  0.75310869  0.38196591  0.97015677    -0.19800
C1638       C  0.76002636  0.37325475  0.50615028    -0.12100
C1639       C  0.76811125  0.34213749  0.51323867     0.13600
C1640       C  0.76736164  0.32030202  0.48466631    -0.22500
C1641       C  0.75005983  0.37207410  0.90257950    -0.05600
H1642       H  0.74763324  0.40598373  0.96467689     0.15100
C1643       C  0.77757998  0.33094321  0.55038651    -0.15800
H1644       H  0.77177846  0.29606636  0.49073256     0.09400
H1645       H  0.69545374  0.28522167  0.83968767     0.07300
H1646       H  0.68038930  0.26519410  0.87951979     0.08500
H1647       H  0.69783706  0.24374086  0.84370678     0.07500
H1648       H  0.81840218  0.29393714  0.95867025     0.02400
H1649       H  0.82476732  0.31904276  0.91950470     0.02900
H1650       H  0.83648013  0.27919763  0.91861590     0.06400
H1651       H  0.74752388  0.39779137  0.90175249     0.05400
H1652       H  0.72888486  0.36126446  0.89016368    -0.00400
H1653       H  0.77067991  0.36631506  0.88586013     0.01100
H1654       H  0.76260431  0.31050894  0.55820029     0.04700
H1655       H  0.77589496  0.34903401  0.57185143     0.06700
H1656       H  0.80204214  0.32341509  0.54927728     0.07600
C1657       C  0.85910270  0.19045061  0.90764753    -0.22100
C1658       C  0.84983605  0.18158969  0.94253227     0.09900
C1659       C  0.81800443  0.17810202  0.95033313     0.10300
C1660       C  0.79635488  0.18204341  0.92217354    -0.17000
C1661       C  0.80483892  0.18926104  0.88588377    -0.27400
C1662       C  0.83759572  0.19594432  0.87981104     0.18600
C1663       C  0.87437476  0.17924490  0.97065289     0.12600
C1664       C  0.80684408  0.17018072  0.98828392    -0.11800
H1665       H  0.77238224  0.17956317  0.92885200     0.12900
C1666       C  0.85262084  0.21199181  0.84759507    -0.22600
H1667       H  0.88376782  0.19483046  0.90264860     0.08500
C1668       C  0.89375140  0.15335092  0.97216891     0.04900
C1669       C  0.91953273  0.15411367  0.99566097    -0.19800
C1670       C  0.92694099  0.18063628  0.51722267    -0.12100
C1671       C  0.90681865  0.20639254  0.51620076     0.13600
C1672       C  0.88076975  0.20522362  0.49311553    -0.22500
C1673       C  0.88732211  0.12509219  0.94861418    -0.05600
H1674       H  0.93434612  0.13411948  0.99655806     0.15100
C1675       C  0.91215712  0.23522126  0.53928198    -0.15800
H1676       H  0.86582976  0.22510987  0.49144964     0.09400
H1677       H  0.83690436  0.21817241  0.82635647     0.07300
H1678       H  0.87066707  0.19709195  0.83556451     0.08500
H1679       H  0.86416230  0.23422795  0.85666942     0.07500
H1680       H  0.81412416  0.18890763  0.50769287     0.02400
H1681       H  0.81682767  0.14786244  0.99719066     0.02900
H1682       H  0.78107440  0.16760383  0.98961754     0.06400
H1683       H  0.90406906  0.10639064  0.95384537     0.05400
H1684       H  0.88899289  0.13162924  0.91935622    -0.00400
H1685       H  0.86354573  0.11565870  0.95435933     0.01100
H1686       H  0.93417869  0.24748384  0.53105277     0.04700
H1687       H  0.91303190  0.22867820  0.56857313     0.06700
H1688       H  0.89321964  0.25205194  0.53599550     0.07600
C1689       C  0.58596401  0.20337584  0.94959586    -0.22100
C1690       C  0.61253640  0.18561540  0.95400720     0.09900
C1691       C  0.61442518  0.16515897  0.48426685     0.10300
C1692       C  0.58979364  0.16317606  0.50950392    -0.17000
C1693       C  0.56316621  0.18095203  0.50529407    -0.27400
C1694       C  0.56119179  0.20141572  0.97480325     0.18600
C1695       C  0.63906969  0.18952137  0.92801238     0.12600
C1696       C  0.64294852  0.14634414  0.49056155    -0.11800
H1697       H  0.59177655  0.14840232  0.53334634     0.12900
C1698       C  0.53289814  0.22021026  0.96693749    -0.22600
H1699       H  0.58454310  0.21887883  0.92632135     0.08500
C1700       C  0.64179394  0.17074221  0.89688697     0.04900
C1701       C  0.66963190  0.17188307  0.87662635    -0.19800
C1702       C  0.69556551  0.19162642  0.88557230    -0.12100
C1703       C  0.69242317  0.20969052  0.91869974     0.13600
C1704       C  0.66386776  0.20949302  0.93762788    -0.22500
C1705       C  0.61535572  0.14913191  0.88521116    -0.05600
H1706       H  0.67045748  0.15731212  0.85296579     0.15100
C1707       C  0.71862672  0.22481321  0.94033616    -0.15800
H1708       H  0.66190259  0.22292722  0.96261909     0.09400
H1709       H  0.52405325  0.21430341  0.93924918     0.07300
H1710       H  0.53932239  0.24550233  0.96782742     0.08500
H1711       H  0.51262465  0.21352130  0.48520141     0.07500
H1712       H  0.66364887  0.16224036  0.49368575     0.02400
H1713       H  0.64595906  0.13029648  0.96616162     0.02900
H1714       H  0.64078583  0.13185166  0.51560913     0.06400
H1715       H  0.62107587  0.13603582  0.86002117     0.05400
H1716       H  0.59442047  0.16289463  0.87967265    -0.00400
H1717       H  0.60992930  0.13195087  0.90715512     0.01100
H1718       H  0.71543572  0.25023071  0.94289990     0.04700
H1719       H  0.74165284  0.21938136  0.92987639     0.06700
H1720       H  0.71825634  0.21558003  0.96868963     0.07600
C1721       C  0.74596421  0.02403651  0.94311078    -0.22100
C1722       C  0.77003524  0.04679211  0.94463161     0.09900
C1723       C  0.79154440  0.04583315  0.47336459     0.10300
C1724       C  0.78788757  0.02316585  0.50098634    -0.17000
C1725       C  0.76245731  0.50166366  0.50115237    -0.27400
C1726       C  0.74186516  0.50149347  0.97080141     0.18600
C1727       C  0.76659887  0.07576233  0.92269013     0.12600
C1728       C  0.81814270  0.06940294  0.47524527    -0.11800
H1729       H  0.80430479  0.02313012  0.52338174     0.12900
C1730       C  0.71524782  0.47797057  0.96730867    -0.22600
H1731       H  0.72907661  0.02519908  0.92125810     0.08500
C1732       C  0.77664370  0.07968936  0.88653401     0.04900
C1733       C  0.77011489  0.10759615  0.86783997    -0.19800
C1734       C  0.75333607  0.13242930  0.88347175    -0.12100
C1735       C  0.74105549  0.12582092  0.91951042     0.13600
C1736       C  0.74936405  0.09889226  0.93850572    -0.22500
C1737       C  0.79413054  0.05442425  0.86764010    -0.05600
H1738       H  0.77755948  0.10894537  0.84002988     0.15100
C1739       C  0.71741700  0.14408308  0.93930398    -0.15800
H1740       H  0.74076736  0.09466112  0.96600412     0.09400
H1741       H  0.70306943  0.48005468  0.94075509     0.07300
H1742       H  0.69785503  0.48162115  0.98916919     0.08500
H1743       H  0.72409922  0.45392989  0.46937377     0.07500
H1744       H  0.80958973  0.09305652  0.97722774     0.02400
H1745       H  0.83257063  0.06755684  0.45022655     0.02900
H1746       H  0.83323530  0.06553857  0.49927842     0.06400
H1747       H  0.80051643  0.06102608  0.83922249     0.05400
H1748       H  0.77948574  0.03263892  0.86663643    -0.00400
H1749       H  0.81584471  0.04991320  0.88283060     0.01100
H1750       H  0.71234948  0.13541662  0.96732681     0.04700
H1751       H  0.69509050  0.14160505  0.92502595     0.06700
H1752       H  0.72613353  0.16770387  0.94341114     0.07600
C1753       C  0.75002523  0.66389646  0.36033569    -0.02100
C1754       C  0.72513253  0.69061173  0.36022412    -0.02100
C1755       C  0.77731361  0.69004160  0.35776948    -0.02100
C1756       C  0.75216506  0.71641450  0.35716439    -0.02100
C1757       C  0.74889084  0.66263656  0.31709092    -0.02100
C1758       C  0.72427933  0.68908731  0.31658605    -0.02100
C1759       C  0.77621780  0.68826721  0.31493554    -0.02100
C1760       C  0.75116131  0.71490140  0.31452694    -0.02100
O1761       O  0.52946145  0.65370366  0.04715082    -0.74000
O1762       O  0.96788004  0.65078834  0.12345612    -0.74100
O1763       O  0.96594881  0.65345897  0.05029025    -0.74100
O1764       O  0.53150872  0.65100691  0.12137472    -0.74200
O1765       O  0.53338083  0.70286578  0.12328116    -0.74100
O1766       O  0.96717503  0.70529678  0.05363543    -0.74100
O1767       O  0.97020051  0.70278583  0.12684900    -0.74000
O1768       O  0.53030535  0.70572280  0.04924405    -0.74100
Ni1769     Ni  0.99878390  0.65037092  0.08548265     1.25400
Ni1770     Ni  0.00043820  0.70597685  0.08834188     1.25400
C1771       C  0.53965165  0.68025011  0.03519980     0.88200
C1772       C  0.95819277  0.67640466  0.13678491     0.88100
C1773       C  0.95483250  0.67982508  0.04134973     0.88100
C1774       C  0.54335123  0.67655477  0.13422995     0.88300
O1775       O  0.77391450  0.97213058  0.12419720    -0.74000
O1776       O  0.78159550  0.90725396  0.05188448    -0.74100
O1777       O  0.78261977  0.97053203  0.04987266    -0.74100
O1778       O  0.77320718  0.90873815  0.12570809    -0.74200
O1779       O  0.72183692  0.90712705  0.11728124    -0.74100
O1780       O  0.73130757  0.96966396  0.04215607    -0.74100
O1781       O  0.73021148  0.90678374  0.04347022    -0.74000
O1782       O  0.72263247  0.97077135  0.11632124    -0.74100
Ni1783     Ni  0.77964940  0.93976895  0.08825061     1.25400
Ni1784     Ni  0.72468938  0.93862232  0.07963106     1.25400
C1785       C  0.74688278  0.98193389  0.13262630     0.88200
C1786       C  0.75712274  0.89671201  0.03546100     0.88100
C1787       C  0.75858441  0.97952953  0.03254933     0.88100
C1788       C  0.74607567  0.89744317  0.13363352     0.88300
C1789       C  0.73356990  0.81873672  0.18090308    -0.22100
C1790       C  0.74315771  0.82563569  0.21670032     0.09900
C1791       C  0.75145361  0.85701152  0.22558169     0.10300
C1792       C  0.75230518  0.87987774  0.19786496    -0.17000
C1793       C  0.74306403  0.87273356  0.16198561    -0.27400
C1794       C  0.73222374  0.84196301  0.15393328     0.18600
C1795       C  0.74425267  0.79951090  0.24389710     0.12600
C1796       C  0.75800250  0.86683561  0.26440057    -0.11800
H1797       H  0.75969908  0.90365893  0.20436812     0.12900
C1798       C  0.71925851  0.83243838  0.11731997    -0.22600
H1799       H  0.72718466  0.79483127  0.17375444     0.08500
C1800       C  0.71775181  0.78096501  0.25286673     0.04900
C1801       C  0.72072721  0.75471056  0.27552858    -0.19800
C1802       C  0.74917969  0.74621792  0.29155027    -0.12100
C1803       C  0.77438512  0.76846731  0.28661510     0.13600
C1804       C  0.77227146  0.79295071  0.26116166    -0.22500
C1805       C  0.68579320  0.78965106  0.24021227    -0.05600
H1806       H  0.69962676  0.74245321  0.28208072     0.15100
C1807       C  0.80405398  0.76773208  0.30735951    -0.15800
H1808       H  0.79279718  0.80738609  0.25519631     0.09400
H1809       H  0.69430159  0.82550939  0.12045898     0.07300
H1810       H  0.73172993  0.81193348  0.10712960     0.08500
H1811       H  0.72116643  0.85113410  0.09653390     0.07500
H1812       H  0.77929981  0.85597875  0.27470858     0.02400
H1813       H  0.73795075  0.85981302  0.28204278     0.02900
H1814       H  0.76159016  0.89254950  0.26673307     0.06400
H1815       H  0.66731007  0.77468217  0.25301728     0.05400
H1816       H  0.68363612  0.78699192  0.21025545    -0.00400
H1817       H  0.68141796  0.81419354  0.24795702     0.01100
H1818       H  0.82394208  0.76392793  0.28867058     0.04700
H1819       H  0.80239699  0.74930707  0.32757103     0.06700
H1820       H  0.80800650  0.79015253  0.32213052     0.07600
C1821       C  0.87803697  0.66305105  0.17910148    -0.22100
C1822       C  0.88146773  0.67939600  0.21205304     0.09900
C1823       C  0.91040082  0.69396408  0.22075355     0.10300
C1824       C  0.93526388  0.69226141  0.19595914    -0.17000
C1825       C  0.93196234  0.67583935  0.16298503    -0.27400
C1826       C  0.90293138  0.66115738  0.15434669     0.18600
C1827       C  0.85446596  0.68122265  0.23713250     0.12600
C1828       C  0.91483973  0.71156609  0.25605882    -0.11800
H1829       H  0.95739932  0.70377894  0.20231020     0.12900
C1830       C  0.89767530  0.64474105  0.11837570    -0.22600
H1831       H  0.85566868  0.65207946  0.17260030     0.08500
C1832       C  0.83159657  0.70352401  0.23256230     0.04900
C1833       C  0.80736101  0.70522312  0.25810480    -0.19800
C1834       C  0.80493583  0.68560302  0.28906474    -0.12100
C1835       C  0.82830413  0.66247622  0.29249322     0.13600
C1836       C  0.85225318  0.66069749  0.26650362    -0.22500
C1837       C  0.83260442  0.72548268  0.20043775    -0.05600
H1838       H  0.78964044  0.72131447  0.25215306     0.15100
C1839       C  0.83019089  0.63933363  0.32289578    -0.15800
H1840       H  0.86994567  0.64337236  0.26960898     0.09400
H1841       H  0.87330383  0.63569525  0.11558633     0.07300
H1842       H  0.91319366  0.62461618  0.11605494     0.08500
H1843       H  0.90250692  0.66126298  0.09557746     0.07500
H1844       H  0.91080864  0.69549679  0.27946313     0.02400
H1845       H  0.89811378  0.73076408  0.25763578     0.02900
H1846       H  0.93875020  0.72191697  0.25845210     0.06400
H1847       H  0.81302461  0.74180832  0.20095082     0.05400
H1848       H  0.83111843  0.71189730  0.17465709    -0.00400
H1849       H  0.85470474  0.73958176  0.20075750     0.01100
H1850       H  0.85361449  0.64082946  0.33562080     0.04700
H1851       H  0.82628674  0.61533033  0.31204022     0.06700
H1852       H  0.81361456  0.64384562  0.34447436     0.07600
C1853       C  0.67374333  0.67745904  0.22786819    -0.22100
C1854       C  0.64371826  0.68130545  0.24100916     0.09900
C1855       C  0.63975809  0.69039642  0.27753132     0.10300
C1856       C  0.66601457  0.69452676  0.30010712    -0.17000
C1857       C  0.69634932  0.68694746  0.28888168    -0.27400
C1858       C  0.69989058  0.68173294  0.25043550     0.18600
C1859       C  0.61753090  0.68014071  0.21450864     0.12600
C1860       C  0.60785166  0.69632254  0.29255451    -0.11800
H1861       H  0.66266535  0.70623255  0.32561625     0.12900
C1862       C  0.73001229  0.68509045  0.23025370    -0.22600
H1863       H  0.67693146  0.67306721  0.19894310     0.08500
C1864       C  0.60962617  0.70682434  0.19448237     0.04900
C1865       C  0.58550169  0.70470210  0.16879190    -0.19800
C1866       C  0.56904443  0.67636051  0.16188131    -0.12100
C1867       C  0.57750548  0.64935183  0.18175502     0.13600
C1868       C  0.60157299  0.65172639  0.20781118    -0.22500
C1869       C  0.62683006  0.73761109  0.20006422    -0.05600
H1870       H  0.57971861  0.72549264  0.15375348     0.15100
C1871       C  0.56139730  0.61796487  0.17623409    -0.15800
H1872       H  0.60817655  0.63124481  0.22295701     0.09400
H1873       H  0.72922996  0.70533932  0.21139031     0.07300
H1874       H  0.73413098  0.66383071  0.21384676     0.08500
H1875       H  0.74921177  0.68953579  0.24879361     0.07500
H1876       H  0.59302503  0.67473374  0.29017042     0.02400
H1877       H  0.59697288  0.71536506  0.27709527     0.02900
H1878       H  0.60874751  0.70312760  0.32180032     0.06400
H1879       H  0.61796223  0.75613532  0.18200845     0.05400
H1880       H  0.65193449  0.73504924  0.19402138     0.01200
H1881       H  0.62399137  0.74534760  0.22871856     0.01100
H1882       H  0.56510156  0.60979399  0.14784900     0.04700
H1883       H  0.53612920  0.61966019  0.18190116     0.06700
H1884       H  0.57061147  0.59996908  0.19478486     0.07600
C1885       C  0.72233286  0.58144887  0.27296121    -0.22100
C1886       C  0.74304399  0.57924670  0.24360886     0.09900
C1887       C  0.76413956  0.60418477  0.23709227     0.10300
C1888       C  0.76521291  0.62967051  0.26101435    -0.17000
C1889       C  0.74557412  0.63261863  0.29182600    -0.27400
C1890       C  0.72323315  0.60739970  0.29700047     0.18600
C1891       C  0.74171087  0.55175488  0.21848802     0.12600
C1892       C  0.78449038  0.60501170  0.20334235    -0.11800
H1893       H  0.78001984  0.64830429  0.25219474     0.12900
C1894       C  0.70025386  0.60570949  0.32769427    -0.22600
H1895       H  0.70546100  0.56249186  0.27746103     0.08500
C1896       C  0.76498644  0.52919451  0.21875946     0.04900
C1897       C  0.76614106  0.00705367  0.19036045    -0.19800
C1898       C  0.74383138  0.00592310  0.16222979    -0.12100
C1899       C  0.71934853  0.52750496  0.16341148     0.13600
C1900       C  0.71888008  0.55025560  0.19125000    -0.22500
C1901       C  0.78827122  0.52813864  0.24944323    -0.05600
H1902       H  0.78444364  0.99021898  0.19043447     0.15100
C1903       C  0.69416606  0.52763741  0.13487525    -0.15800
H1904       H  0.70103473  0.56759004  0.19125378     0.09400
H1905       H  0.70251542  0.58338658  0.34272872     0.07300
H1906       H  0.67624616  0.60700834  0.31680859     0.08500
H1907       H  0.70432205  0.62431749  0.34740999     0.07500
H1908       H  0.76963961  0.60381822  0.17860640     0.02400
H1909       H  0.80029179  0.58508056  0.20309800     0.02900
H1910       H  0.79921978  0.62673841  0.20167414     0.06400
H1911       H  0.80470700  0.50889058  0.24570230     0.05400
H1912       H  0.77579010  0.52432042  0.27569769    -0.00400
H1913       H  0.80211707  0.55033855  0.25121145     0.01100
H1914       H  0.68009153  0.50550996  0.13614452     0.04700
H1915       H  0.70470696  0.03048676  0.10734183     0.06700
H1916       H  0.67800810  0.54705597  0.13914587     0.07600
C1917       C  0.73347760  0.79737997  0.40016714    -0.22100
C1918       C  0.76083904  0.80432185  0.41970368     0.09900
C1919       C  0.78677260  0.78570826  0.41379415     0.10300
C1920       C  0.78339605  0.75855408  0.39267745    -0.17000
C1921       C  0.75514914  0.74923585  0.37566621    -0.27400
C1922       C  0.73049773  0.77080589  0.37752529     0.18600
C1923       C  0.76106437  0.82904245  0.44852444     0.12600
C1924       C  0.81847979  0.79478144  0.42882763    -0.11800
H1925       H  0.80378596  0.74538777  0.38902014     0.12900
C1926       C  0.69961275  0.76592793  0.35903467    -0.22600
H1927       H  0.71338365  0.81160022  0.40443601     0.08500
C1928       C  0.75492204  0.86064774  0.44104314     0.04900
C1929       C  0.75372365  0.88213235  0.47008990    -0.19800
C1930       C  0.75973647  0.87311376  0.00614407    -0.12100
C1931       C  0.76808564  0.84204792  0.01308773     0.13600
C1932       C  0.76723475  0.82023120  0.98449076    -0.22500
C1933       C  0.75089325  0.87213260  0.40251902    -0.05600
H1934       H  0.74845160  0.90619040  0.46452173     0.15100
C1935       C  0.77799169  0.83089065  0.05008319    -0.15800
H1936       H  0.77181554  0.79601850  0.99048425     0.09400
H1937       H  0.69580135  0.78544574  0.33979786     0.07300
H1938       H  0.68061528  0.76547525  0.37961358     0.08500
H1939       H  0.69803420  0.74395505  0.34383099     0.07500
H1940       H  0.81855707  0.79385578  0.45901581     0.02400
H1941       H  0.82516396  0.81879158  0.41975317     0.02900
H1942       H  0.83667280  0.77887505  0.41910434     0.06400
H1943       H  0.74849028  0.89786444  0.40160538     0.05400
H1944       H  0.72971453  0.86139775  0.39002501    -0.00400
H1945       H  0.77154230  0.86623052  0.38592599     0.01100
H1946       H  0.76330932  0.81027903  0.05800574     0.04700
H1947       H  0.77629447  0.84891543  0.07162115     0.06700
H1948       H  0.80253044  0.82363033  0.04865325     0.07600
C1949       C  0.85904432  0.69056435  0.40791581    -0.22100
C1950       C  0.84974837  0.68167944  0.44277884     0.09900
C1951       C  0.81791841  0.67811249  0.45052958     0.10300
C1952       C  0.79631060  0.68205711  0.42233870    -0.17000
C1953       C  0.80481267  0.68922662  0.38605099    -0.27400
C1954       C  0.83757055  0.69595355  0.38001969     0.18600
C1955       C  0.87426875  0.67929491  0.47089749     0.12600
C1956       C  0.80673705  0.67009433  0.48844650    -0.11800
H1957       H  0.77231144  0.67965501  0.42900059     0.12900
C1958       C  0.85263119  0.71195461  0.34779362    -0.22600
H1959       H  0.88370886  0.69499977  0.40296494     0.08500
C1960       C  0.89375827  0.65347914  0.47219265     0.04900
C1961       C  0.91957595  0.65424584  0.49561118    -0.19800
C1962       C  0.92698171  0.68057716  0.01713025    -0.12100
C1963       C  0.90696412  0.70641532  0.01586934     0.13600
C1964       C  0.88095957  0.70525008  0.99271210    -0.22500
C1965       C  0.88741611  0.62529985  0.44847583    -0.05600
H1966       H  0.93448682  0.63432012  0.49633631     0.15100
C1967       C  0.91235826  0.73533958  0.03876959    -0.15800
H1968       H  0.86610352  0.72519058  0.99088377     0.09400
H1969       H  0.83694975  0.71805766  0.32648310     0.07300
H1970       H  0.87072580  0.69705914  0.33585777     0.08500
H1971       H  0.86411618  0.73423181  0.35682589     0.07500
H1972       H  0.81433587  0.68899248  0.00747977     0.02400
H1973       H  0.81680700  0.64781196  0.49733326     0.02900
H1974       H  0.78097292  0.66739989  0.48972448     0.06400
H1975       H  0.90427798  0.60666730  0.45352504     0.05400
H1976       H  0.88898898  0.63197386  0.41925420    -0.00400
H1977       H  0.86369952  0.61570797  0.45424386     0.01100
H1978       H  0.93445472  0.74746530  0.03055040     0.04700
H1979       H  0.91310826  0.72893927  0.06810997     0.06700
H1980       H  0.89350938  0.75224097  0.03528326     0.07600
C1981       C  0.58533829  0.70211465  0.44871527    -0.22100
C1982       C  0.61232050  0.68507374  0.45369945     0.09900
C1983       C  0.61428914  0.66513892  0.98409922     0.10300
C1984       C  0.58961652  0.66312371  0.00929300    -0.17000
C1985       C  0.56332958  0.68148892  0.00559142    -0.27400
C1986       C  0.56058195  0.70012682  0.47393714     0.18600
C1987       C  0.63887899  0.68914806  0.42777997     0.12600
C1988       C  0.64253452  0.64582613  0.99000048    -0.11800
H1989       H  0.59132663  0.64785143  0.03273693     0.12900
C1990       C  0.53182640  0.71804749  0.46554100    -0.22600
H1991       H  0.58360362  0.71710179  0.42502063     0.08500
C1992       C  0.64180955  0.67035516  0.39670264     0.04900
C1993       C  0.66966503  0.67172881  0.37649595    -0.19800
C1994       C  0.69547095  0.69160237  0.38555641    -0.12100
C1995       C  0.69213392  0.70967099  0.41863462     0.13600
C1996       C  0.66351528  0.70932129  0.43743727    -0.22500
C1997       C  0.61561696  0.64842497  0.38506983    -0.05600
H1998       H  0.67059862  0.65725648  0.35277326     0.15100
C1999       C  0.71820916  0.72493313  0.44034798    -0.15800
H2000       H  0.66139260  0.72277576  0.46239219     0.09400
H2001       H  0.52296622  0.71116012  0.43815542     0.07300
H2002       H  0.53769533  0.74346878  0.46541761     0.08500
H2003       H  0.51347905  0.71554130  0.98625067     0.07500
H2004       H  0.66342924  0.66140887  0.99345417     0.02400
H2005       H  0.64655302  0.63050694  0.46704358     0.02900
H2006       H  0.64015933  0.63098319  0.01474572     0.06400
H2007       H  0.62152280  0.63530346  0.35996086     0.05400
H2008       H  0.59453226  0.66192603  0.37941483    -0.00400
H2009       H  0.61035520  0.63126803  0.40709161     0.01100
H2010       H  0.71492841  0.75034656  0.44278900     0.04700
H2011       H  0.74129930  0.71951578  0.43003785     0.06700
H2012       H  0.71775712  0.71577204  0.46873325     0.07600
C2013       C  0.74576259  0.52397662  0.44319291    -0.22100
C2014       C  0.76975734  0.54681189  0.44467749     0.09900
C2015       C  0.79183554  0.54565940  0.97329411     0.10300
C2016       C  0.78810084  0.52294700  0.00086468    -0.17000
C2017       C  0.76257516  0.00155286  0.00101810    -0.27400
C2018       C  0.74173956  0.00147538  0.47093737     0.18600
C2019       C  0.76624385  0.57573235  0.42270145     0.12600
C2020       C  0.81853660  0.56910297  0.97520839    -0.11800
H2021       H  0.80453306  0.52280077  0.02324070     0.12900
C2022       C  0.71518874  0.97786378  0.46750766    -0.22600
H2023       H  0.72887384  0.52504343  0.42133138     0.08500
C2024       C  0.77633210  0.57966732  0.38656846     0.04900
C2025       C  0.76994865  0.60763567  0.36794444    -0.19800
C2026       C  0.75322025  0.63248678  0.38360909    -0.12100
C2027       C  0.74089763  0.62589192  0.41963064     0.13600
C2028       C  0.74906726  0.59888748  0.43855432    -0.22500
C2029       C  0.79369798  0.55434526  0.36761963    -0.05600
H2030       H  0.77747249  0.60902410  0.34016599     0.15100
C2031       C  0.71737141  0.64425211  0.43949901    -0.15800
H2032       H  0.74044688  0.59464347  0.46603990     0.09400
H2033       H  0.70300471  0.97985474  0.44094604     0.07300
H2034       H  0.69777992  0.98151389  0.48935180     0.08500
H2035       H  0.72409192  0.95400955  0.96909940     0.07500
H2036       H  0.80908846  0.59331659  0.47717444     0.02400
H2037       H  0.83293239  0.56724263  0.95016578     0.02900
H2038       H  0.83363420  0.56511324  0.99920664     0.06400
H2039       H  0.80012568  0.56096728  0.33922023     0.05400
H2040       H  0.77894139  0.53263590  0.36655215    -0.00400
H2041       H  0.81537811  0.54969048  0.38280873     0.01100
H2042       H  0.71240455  0.63565819  0.46757412     0.04700
H2043       H  0.69498492  0.64179722  0.42535426     0.06700
H2044       H  0.72612450  0.66788190  0.44350454     0.07600
C2045       C  0.75008809  0.66385717  0.86019362    -0.02100
C2046       C  0.72514630  0.69053652  0.86008776    -0.02100
C2047       C  0.77732963  0.69005201  0.85761288    -0.02100
C2048       C  0.75212746  0.71638071  0.85699100    -0.02100
C2049       C  0.74895560  0.66261415  0.81694127    -0.02100
C2050       C  0.72428667  0.68901160  0.81643815    -0.02100
C2051       C  0.77623886  0.68827571  0.81477732    -0.02100
C2052       C  0.75112279  0.71486083  0.81435845    -0.02100
O2053       O  0.52933232  0.65344475  0.54704884    -0.74000
O2054       O  0.96792643  0.65101466  0.62348686    -0.74100
O2055       O  0.96586370  0.65348739  0.55034459    -0.74100
O2056       O  0.53152325  0.65098184  0.62123189    -0.74200
O2057       O  0.53363279  0.70284280  0.62290583    -0.74100
O2058       O  0.96724559  0.70534046  0.55352318    -0.74100
O2059       O  0.97044961  0.70301909  0.62672948    -0.74000
O2060       O  0.53032441  0.70548376  0.54884546    -0.74100
Ni2061     Ni  0.99873692  0.65036638  0.58545202     1.25400
Ni2062     Ni  0.00059788  0.70598669  0.58808747     1.25400
C2063       C  0.53956170  0.67991327  0.53493552     0.88200
C2064       C  0.95835056  0.67669787  0.63674547     0.88100
C2065       C  0.95481558  0.67987003  0.54135770     0.88100
C2066       C  0.54350992  0.67651711  0.63393512     0.88300
O2067       O  0.77399859  0.97211081  0.62430712    -0.74000
O2068       O  0.78179163  0.90743368  0.55184984    -0.74100
O2069       O  0.78264472  0.97069776  0.54997435    -0.74100
O2070       O  0.77337648  0.90874016  0.62566815    -0.74200
O2071       O  0.72200553  0.90707948  0.61723692    -0.74100
O2072       O  0.73132387  0.96971834  0.54230204    -0.74100
O2073       O  0.73040040  0.90685160  0.54344691    -0.74000
O2074       O  0.72270990  0.97067654  0.61646003    -0.74100
Ni2075     Ni  0.77977179  0.93985533  0.58828300     1.25400
Ni2076     Ni  0.72480360  0.93861439  0.57968282     1.25400
C2077       C  0.74695362  0.98183462  0.63278317     0.88200
C2078       C  0.75734110  0.89685976  0.53542186     0.88100
C2079       C  0.75856897  0.97964881  0.53268635     0.88100
C2080       C  0.74624912  0.89740884  0.63357133     0.88300
C2081       C  0.73303715  0.81886962  0.68100902    -0.22100
C2082       C  0.74288478  0.82569754  0.71672947     0.09900
C2083       C  0.75161771  0.85699190  0.72550177     0.10300
C2084       C  0.75267400  0.87979979  0.69773080    -0.17000
C2085       C  0.74320261  0.87271450  0.66192212    -0.27400
C2086       C  0.73189591  0.84207479  0.65399583     0.18600
C2087       C  0.74398941  0.79955614  0.74389835     0.12600
C2088       C  0.75839318  0.86682428  0.76427002    -0.11800
H2089       H  0.76038195  0.90350698  0.70414781     0.12900
C2090       C  0.71865810  0.83265784  0.61747118    -0.22600
H2091       H  0.72633373  0.79502762  0.67393452     0.08500
C2092       C  0.71748677  0.78106199  0.75302204     0.04900
C2093       C  0.72054742  0.75470427  0.77551056    -0.19800
C2094       C  0.74905416  0.74617675  0.79139057    -0.12100
C2095       C  0.77423692  0.76843381  0.78639590     0.13600
C2096       C  0.77207510  0.79289260  0.76093691    -0.22500
C2097       C  0.68546484  0.78994010  0.74078319    -0.05600
H2098       H  0.69946444  0.74239804  0.78208331     0.15100
C2099       C  0.80392675  0.76774984  0.80710082    -0.15800
H2100       H  0.79261826  0.80725512  0.75482663     0.09400
H2101       H  0.69362031  0.82612268  0.62075374     0.07300
H2102       H  0.73077204  0.81193134  0.60726902     0.08500
H2103       H  0.72078204  0.85126954  0.59660603     0.07500
H2104       H  0.77959716  0.85577039  0.77453527     0.02400
H2105       H  0.73832604  0.86005703  0.78201209     0.02900
H2106       H  0.76226231  0.89251125  0.76651818     0.06400
H2107       H  0.66702195  0.77494183  0.75363040     0.05400
H2108       H  0.68306534  0.78750853  0.71082829    -0.00400
H2109       H  0.68123715  0.81444538  0.74882127     0.01100
H2110       H  0.82380824  0.76396379  0.78839678     0.04700
H2111       H  0.80230343  0.74934642  0.82733753     0.06700
H2112       H  0.80786236  0.79018799  0.82184079     0.07600
C2113       C  0.87812022  0.66354382  0.67886723    -0.22100
C2114       C  0.88164599  0.67950858  0.71205557     0.09900
C2115       C  0.91063292  0.69390235  0.72090237     0.10300
C2116       C  0.93549264  0.69230284  0.69607997    -0.17000
C2117       C  0.93209125  0.67622846  0.66288952    -0.27400
C2118       C  0.90296734  0.66185396  0.65402981     0.18600
C2119       C  0.85461940  0.68129753  0.73710793     0.12600
C2120       C  0.91511691  0.71125111  0.75636833    -0.11800
H2121       H  0.95769026  0.70362968  0.70257152     0.12900
C2122       C  0.89755235  0.64605670  0.61771341    -0.22600
H2123       H  0.85569409  0.65276962  0.67221593     0.08500
C2124       C  0.83179889  0.70365315  0.73257478     0.04900
C2125       C  0.80748706  0.70528475  0.75802746    -0.19800
C2126       C  0.80498537  0.68560686  0.78892965    -0.12100
C2127       C  0.82833022  0.66245171  0.79234423     0.13600
C2128       C  0.85230927  0.66068194  0.76638587    -0.22500
C2129       C  0.83296752  0.72577506  0.70060515    -0.05600
H2130       H  0.78979190  0.72140018  0.75207478     0.15100
C2131       C  0.83018182  0.63929414  0.82272790    -0.15800
H2132       H  0.86996386  0.64331450  0.76946645     0.09400
H2133       H  0.87312929  0.63719736  0.61480000     0.07300
H2134       H  0.91295293  0.62588908  0.61485844     0.08500
H2135       H  0.90242136  0.66294175  0.59529062     0.07500
H2136       H  0.91104908  0.69503334  0.77962462     0.02400
H2137       H  0.89843706  0.73047992  0.75812761     0.02900
H2138       H  0.93904858  0.72153323  0.75884341     0.06400
H2139       H  0.81343479  0.74215454  0.70115244     0.05400
H2140       H  0.83152794  0.71233194  0.67472146    -0.00400
H2141       H  0.85510378  0.73981235  0.70111881     0.01100
H2142       H  0.85360646  0.64074924  0.83545360     0.04700
H2143       H  0.82624018  0.61530034  0.81185924     0.06700
H2144       H  0.81362494  0.64384957  0.84431122     0.07600
C2145       C  0.67390368  0.67740760  0.72759491    -0.22100
C2146       C  0.64384721  0.68106919  0.74071703     0.09900
C2147       C  0.63980006  0.69000214  0.77727523     0.10300
C2148       C  0.66601672  0.69421086  0.79989388    -0.17000
C2149       C  0.69640089  0.68682332  0.78867960    -0.27400
C2150       C  0.70000925  0.68172662  0.75021548     0.18600
C2151       C  0.61770358  0.67994296  0.71417339     0.12600
C2152       C  0.60784014  0.69569651  0.79228620    -0.11800
H2153       H  0.66259198  0.70588984  0.82539594     0.12900
C2154       C  0.73013645  0.68527812  0.73007576    -0.22600
H2155       H  0.67714050  0.67313703  0.69865177     0.08500
C2156       C  0.60972457  0.70670060  0.69433148     0.04900
C2157       C  0.58561063  0.70462925  0.66862557    -0.19800
C2158       C  0.56923491  0.67627261  0.66153722    -0.12100
C2159       C  0.57779887  0.64918737  0.68120592     0.13600
C2160       C  0.60185345  0.65151142  0.70727322    -0.22500
C2161       C  0.62683399  0.73751225  0.70013889    -0.05600
H2162       H  0.57975917  0.72547680  0.65373725     0.15100
C2163       C  0.56183557  0.61775923  0.67544280    -0.15800
H2164       H  0.60852773  0.63097887  0.72227685     0.09400
H2165       H  0.72928375  0.70558803  0.71130807     0.07300
H2166       H  0.73435855  0.66409540  0.71357231     0.08500
H2167       H  0.74930634  0.68972710  0.74864906     0.07500
H2168       H  0.59313877  0.67403202  0.78979625     0.02400
H2169       H  0.59686125  0.71471827  0.77689423     0.02900
H2170       H  0.60867214  0.70241879  0.82155877     0.06400
H2171       H  0.61790710  0.75610096  0.68221827     0.05400
H2172       H  0.65195063  0.73506630  0.69407788     0.01200
H2173       H  0.62397851  0.74509076  0.72885056     0.01100
H2174       H  0.56554358  0.60978995  0.64697819     0.04700
H2175       H  0.53656438  0.61928680  0.68118645     0.06700
H2176       H  0.57116428  0.59969195  0.69381228     0.07600
C2177       C  0.72262804  0.58136451  0.77297403    -0.22100
C2178       C  0.74330434  0.57920484  0.74358915     0.09900
C2179       C  0.76430642  0.60420144  0.73696354     0.10300
C2180       C  0.76529104  0.62975572  0.76079371    -0.17000
C2181       C  0.74569341  0.63262955  0.79166349    -0.27400
C2182       C  0.72344445  0.60735869  0.79692739     0.18600
C2183       C  0.74194970  0.55170843  0.71851120     0.12600
C2184       C  0.78468278  0.60499001  0.70323554    -0.11800
H2185       H  0.77999622  0.64843824  0.75190548     0.12900
C2186       C  0.70045474  0.60569393  0.82761420    -0.22600
H2187       H  0.70582693  0.56235754  0.77754099     0.08500
C2188       C  0.76514693  0.52907608  0.71886846     0.04900
C2189       C  0.76622099  0.00686783  0.69054321    -0.19800
C2190       C  0.74389964  0.00576299  0.66242267    -0.12100
C2191       C  0.71944414  0.52736659  0.66359025     0.13600
C2192       C  0.71908122  0.55020065  0.69132357    -0.22500
C2193       C  0.78843001  0.52803225  0.74955238    -0.05600
H2194       H  0.78447790  0.98998280  0.69064710     0.15100
C2195       C  0.69415586  0.52739975  0.63518016    -0.15800
H2196       H  0.70127128  0.56757199  0.69130524     0.09400
H2197       H  0.70290612  0.58350840  0.84287190     0.07300
H2198       H  0.67643767  0.60670456  0.81668982     0.08500
H2199       H  0.70431927  0.62450644  0.84712070     0.07500
H2200       H  0.76986131  0.60366456  0.67848074     0.02400
H2201       H  0.80054708  0.58510666  0.70311685     0.02900
H2202       H  0.79934490  0.62675696  0.70149602     0.06400
H2203       H  0.80475274  0.50867035  0.74593215     0.05400
H2204       H  0.77594060  0.52440676  0.77583616    -0.00400
H2205       H  0.80238950  0.55017293  0.75116095     0.01100
H2206       H  0.68010107  0.50526607  0.63661965     0.04700
H2207       H  0.70458586  0.03016510  0.60758267     0.06700
H2208       H  0.67800178  0.54682059  0.63945422     0.07600
C2209       C  0.73316244  0.79726189  0.90001173    -0.22100
C2210       C  0.76051961  0.80428852  0.91952610     0.09900
C2211       C  0.78652703  0.78578438  0.91353289     0.10300
C2212       C  0.78323249  0.75862544  0.89240868    -0.17000
C2213       C  0.75499978  0.74922173  0.87543944    -0.27400
C2214       C  0.73026017  0.77069594  0.87734587     0.18600
C2215       C  0.76068278  0.82896645  0.94841114     0.12600
C2216       C  0.81822901  0.79497110  0.92849087    -0.11800
H2217       H  0.80365020  0.74548551  0.88875752     0.12900
C2218       C  0.69936213  0.76571457  0.85890846    -0.22600
H2219       H  0.71300700  0.81138141  0.90434376     0.08500
C2220       C  0.75430007  0.86053780  0.94104917     0.04900
C2221       C  0.75310864  0.88196565  0.97015667    -0.19800
C2222       C  0.76002664  0.87325506  0.50615006    -0.12100
C2223       C  0.76811146  0.84213776  0.51323834     0.13600
C2224       C  0.76736183  0.82030233  0.48466592    -0.22500
C2225       C  0.75006019  0.87207384  0.90257933    -0.05600
H2226       H  0.74763345  0.90598357  0.96467674     0.15100
C2227       C  0.77758007  0.83094342  0.55038618    -0.15800
H2228       H  0.77177867  0.79606665  0.49073210     0.09400
H2229       H  0.69545379  0.78522109  0.83968696     0.07300
H2230       H  0.68038930  0.76519346  0.87951905     0.08500
H2231       H  0.69783729  0.74374030  0.84370614     0.07500
H2232       H  0.81840112  0.79393584  0.95867142     0.02400
H2233       H  0.82476687  0.81904218  0.91950657     0.02900
H2234       H  0.83647967  0.77919708  0.91861708     0.06400
H2235       H  0.74752450  0.89779115  0.90175227     0.05400
H2236       H  0.72888525  0.86126437  0.89016326    -0.00400
H2237       H  0.77068037  0.86631458  0.88586024     0.01100
H2238       H  0.76260434  0.81050916  0.55819984     0.04700
H2239       H  0.77589504  0.84903416  0.57185116     0.06700
H2240       H  0.80204222  0.82341524  0.54927703     0.07600
C2241       C  0.85910336  0.69045037  0.90764679    -0.22100
C2242       C  0.84983677  0.68158946  0.94253155     0.09900
C2243       C  0.81800518  0.67810174  0.95033250     0.10300
C2244       C  0.79635562  0.68204298  0.92217294    -0.17000
C2245       C  0.80483951  0.68926077  0.88588320    -0.27400
C2246       C  0.83759630  0.69594418  0.87981041     0.18600
C2247       C  0.87437547  0.67924474  0.97065215     0.12600
C2248       C  0.80684495  0.67018067  0.98828339    -0.11800
H2249       H  0.77238293  0.67956251  0.92885145     0.12900
C2250       C  0.85262145  0.71199180  0.84759454    -0.22600
H2251       H  0.88376847  0.69483019  0.90264781     0.08500
C2252       C  0.89375143  0.65335030  0.97216904     0.04900
C2253       C  0.91953249  0.65411284  0.99566143    -0.19800
C2254       C  0.92694124  0.68063633  0.51722248    -0.12100
C2255       C  0.90681868  0.70639243  0.51620107     0.13600
C2256       C  0.88076986  0.70522364  0.49311572    -0.22500
C2257       C  0.88732168  0.62509136  0.94861481    -0.05600
H2258       H  0.93434532  0.63411822  0.99655925     0.15100
C2259       C  0.91215670  0.73522070  0.53928320    -0.15800
H2260       H  0.86582976  0.72510983  0.49145011     0.09400
H2261       H  0.83690499  0.71817231  0.82635584     0.07300
H2262       H  0.87066778  0.69709207  0.83556399     0.08500
H2263       H  0.86416273  0.73422800  0.85666896     0.07500
H2264       H  0.81412408  0.68890613  0.50769278     0.02400
H2265       H  0.81682854  0.64786243  0.99719028     0.02900
H2266       H  0.78107526  0.66760383  0.98961711     0.06400
H2267       H  0.90406809  0.60638944  0.95384668     0.05400
H2268       H  0.88899290  0.63162794  0.91935674    -0.00400
H2269       H  0.86354504  0.61565859  0.95435987     0.01100
H2270       H  0.93417808  0.74748382  0.53105437     0.04700
H2271       H  0.91303161  0.72867696  0.56857414     0.06700
H2272       H  0.89321893  0.75205114  0.53599728     0.07600
C2273       C  0.58596439  0.70337453  0.94959578    -0.22100
C2274       C  0.61253706  0.68561460  0.95400742     0.09900
C2275       C  0.61442573  0.66515983  0.48426651     0.10300
C2276       C  0.58979421  0.66317688  0.50950355    -0.17000
C2277       C  0.56316662  0.68095256  0.50529351    -0.27400
C2278       C  0.56119204  0.70141420  0.97480297     0.18600
C2279       C  0.63907033  0.68952066  0.92801251     0.12600
C2280       C  0.64294922  0.64634526  0.49056133    -0.11800
H2281       H  0.59177723  0.64840329  0.53334611     0.12900
C2282       C  0.53289817  0.72020834  0.96693694    -0.22600
H2283       H  0.58454334  0.71887736  0.92632111     0.08500
C2284       C  0.64179442  0.67074176  0.89688685     0.04900
C2285       C  0.66963225  0.67188278  0.87662595    -0.19800
C2286       C  0.69556595  0.69162602  0.88557192    -0.12100
C2287       C  0.69242375  0.70968995  0.91869952     0.13600
C2288       C  0.66386845  0.70949228  0.93762791    -0.22500
C2289       C  0.61535620  0.64913144  0.88521112    -0.05600
H2290       H  0.67045772  0.65731193  0.85296533     0.15100
C2291       C  0.71862737  0.72481262  0.94033582    -0.15800
H2292       H  0.66190341  0.72292635  0.96261924     0.09400
H2293       H  0.52405353  0.71430133  0.93924856     0.07300
H2294       H  0.53932209  0.74550049  0.96782685     0.08500
H2295       H  0.51262478  0.71352133  0.48520072     0.07500
H2296       H  0.66364946  0.66224164  0.49368545     0.02400
H2297       H  0.64596052  0.63029634  0.96616251     0.02900
H2298       H  0.64078663  0.63185293  0.51560903     0.06400
H2299       H  0.62107623  0.63603549  0.86002100     0.05400
H2300       H  0.59442087  0.66289412  0.87967292    -0.00400
H2301       H  0.60993000  0.63195030  0.90715504     0.01100
H2302       H  0.71543645  0.75023014  0.94289955     0.04700
H2303       H  0.74165344  0.71938068  0.92987589     0.06700
H2304       H  0.71825715  0.71557943  0.96868928     0.07600
C2305       C  0.74596481  0.52403541  0.94310976    -0.22100
C2306       C  0.77003546  0.54679140  0.94463074     0.09900
C2307       C  0.79154467  0.54583255  0.47336361     0.10300
C2308       C  0.78788781  0.52316518  0.50098527    -0.17000
C2309       C  0.76245733  0.00166400  0.50115315    -0.27400
C2310       C  0.74186469  0.00149421  0.97080204     0.18600
C2311       C  0.76659879  0.57576150  0.92268913     0.12600
C2312       C  0.81814329  0.56940200  0.47524410    -0.11800
H2313       H  0.80430526  0.52312917  0.52338045     0.12900
C2314       C  0.71524720  0.97797148  0.96730922    -0.22600
H2315       H  0.72907747  0.52519751  0.92125674     0.08500
C2316       C  0.77664405  0.57968880  0.88653321     0.04900
C2317       C  0.77011541  0.60759573  0.86783930    -0.19800
C2318       C  0.75333652  0.63242881  0.88347118    -0.12100
C2319       C  0.74105562  0.62582021  0.91950965     0.13600
C2320       C  0.74936371  0.59889125  0.93850467    -0.22500
C2321       C  0.79413121  0.55442389  0.86763937    -0.05600
H2322       H  0.77756022  0.60894509  0.84002933     0.15100
C2323       C  0.71741741  0.64408254  0.93930340    -0.15800
H2324       H  0.74076669  0.59465988  0.96600287     0.09400
H2325       H  0.70306850  0.98005613  0.94075591     0.07300
H2326       H  0.69785467  0.98162177  0.98917008     0.08500
H2327       H  0.72410017  0.95392966  0.46937434     0.07500
H2328       H  0.80958844  0.59305693  0.97722719     0.02400
H2329       H  0.83257097  0.56755588  0.45022518     0.02900
H2330       H  0.83323605  0.56553738  0.49927705     0.06400
H2331       H  0.80051748  0.56102596  0.83922195     0.05400
H2332       H  0.77948646  0.53263855  0.86663520    -0.00400
H2333       H  0.81584516  0.54991275  0.88283026     0.01100
H2334       H  0.71234995  0.63541613  0.96732626     0.04700
H2335       H  0.69509084  0.64160482  0.92502553     0.06700
H2336       H  0.72613428  0.66770326  0.94341062     0.07600
loop_ 
_geom_bond_atom_site_label_1 
_geom_bond_atom_site_label_2 
_geom_bond_distance 
_geom_bond_site_symmetry_2 
_ccdc_geom_bond_type 
C1            C2   1.591       .  S
C1            C3   1.599       .  S
C1            C5   1.586       .  S
C1          C274   1.603       .  S
C2            C4   1.583       .  S
C2            C6   1.601       .  S
C2          C242   1.577       .  S
C3            C4   1.588       .  S
C3            C7   1.572       .  S
C3          C201   1.575       .  S
C4            C8   1.564       .  S
C4          C169   1.562       .  S
C5            C6   1.574       .  S
C5            C7   1.585       .  S
C5          C137   1.587       .  S
C6            C8   1.576       .  S
C6          C105   1.575       .  S
C7            C8   1.593       .  S
C7           C82   1.562       .  S
C8           C50   1.589       .  S
O9           C19   1.283       .  A
O9        Ni1185   1.927   1_455  S
O10          C20   1.282       .  A
O10         Ni17   1.922       .  S
O11          C21   1.283       .  A
O11         Ni17   1.922       .  S
O12          C22   1.282       .  A
O12       Ni1185   1.928   1_455  S
O13          C22   1.283       .  A
O13       Ni1186   1.919       .  S
O14          C21   1.280       .  A
O14         Ni18   1.915       .  S
O15          C20   1.281       .  A
O15         Ni18   1.919       .  S
O16          C19   1.282       .  A
O16       Ni1186   1.922       .  S
Ni17       O1177   1.927       .  S
Ni17       O1180   1.928       .  S
Ni17        Ni18   2.383       .  S
Ni18       O1181   1.919       .  S
Ni18       O1184   1.922       .  S
C19         C233   1.486       .  S
C20          C73   1.479       .  S
C21         C210   1.493       .  S
C22         C114   1.501       .  S
O23          C33   1.285       .  A
O23         Ni31   1.932       .  S
O24          C34   1.283       .  A
O24         Ni31   1.930       .  S
O25          C35   1.283       .  A
O25         Ni31   1.929       .  S
O26          C36   1.282       .  A
O26         Ni31   1.925       .  S
O27          C36   1.283       .  A
O27         Ni32   1.931       .  S
O28          C35   1.283       .  A
O28         Ni32   1.927       .  S
O29          C34   1.281       .  A
O29         Ni32   1.920       .  S
O30          C33   1.282       .  A
O30         Ni32   1.928       .  S
Ni31        Ni32   2.384       .  S
C33         C146   1.502       .  S
C34         C178   1.481       .  S
C35         C265   1.498       .  S
C36          C41   1.486       .  S
C37          C38   1.404       .  A
C37          C42   1.405       .  A
C37          H47   1.084       .  S
C38          C43   1.501       .  S
C38          C39   1.418       .  A
C39          C44   1.508       .  S
C39          C40   1.411       .  A
C40          C41   1.405       .  A
C40          H45   1.084       .  S
C41          C42   1.416       .  A
C42          C46   1.505       .  S
C43          C48   1.407       .  A
C43          C52   1.398       .  A
C44          H60   1.107       .  S
C44          H61   1.111       .  S
C44          H62   1.111       .  S
C46          H57   1.110       .  S
C46          H58   1.107       .  S
C46          H59   1.107       .  S
C48          C53   1.509       .  S
C48          C49   1.408       .  A
C49          C50   1.416       .  A
C49          H54   1.061       .  S
C50          C51   1.432       .  A
C51          C55   1.488       .  S
C51          C52   1.409       .  A
C52          H56   1.084       .  S
C53          H63   1.109       .  S
C53          H64   1.107       .  S
C53          H65   1.110       .  S
C55          H66   1.110       .  S
C55          H67   1.083       .  S
C55          H68   1.111       .  S
C69          C70   1.401       .  A
C69          C74   1.406       .  A
C69          H79   1.084       .  S
C70          C75   1.483       .  S
C70          C71   1.411       .  A
C71          C76   1.506       .  S
C71          C72   1.405       .  A
C72          C73   1.403       .  A
C72          H77   1.084       .  S
C73          C74   1.417       .  A
C74          C78   1.508       .  S
C75          C80   1.402       .  A
C75          C84   1.391       .  A
C76          H92   1.110       .  S
C76          H93   1.110       .  S
C76          H94   1.111       .  S
C78          H89   1.111       .  S
C78          H90   1.109       .  S
C78          H91   1.110       .  S
C80          C85   1.507       .  S
C80          C81   1.403       .  A
C81          C82   1.414       .  A
C81          H86   1.066       .  S
C82          C83   1.438       .  A
C83          C87   1.496       .  S
C83          C84   1.405       .  A
C84          H88   1.085       .  S
C85          H95   1.111       .  S
C85          H96   1.110       .  S
C85          H97   1.110       .  S
C87          H98   1.111       .  S
C87          H99   1.110       .  S
C87         H100   1.085       .  S
C101        C102   1.391       .  A
C101        C106   1.404       .  A
C101        H111   1.085       .  S
C102        C107   1.488       .  S
C102        C103   1.405       .  A
C103        C108   1.506       .  S
C103        C104   1.408       .  A
C104        C105   1.414       .  A
C104        H109   1.072       .  S
C105        C106   1.435       .  A
C106        C110   1.493       .  S
C107        C112   1.410       .  A
C107        C116   1.400       .  A
C108        H124   1.110       .  S
C108        H125   1.109       .  S
C108        H126   1.111       .  S
C110        H121   1.111       .  S
C110        H122   1.109       .  S
C110        H123   1.082       .  S
C112        C117   1.506       .  S
C112        C113   1.403       .  A
C113        C114   1.409       .  A
C113        H118   1.083       .  S
C114        C115   1.425       .  A
C115        C119   1.507       .  S
C115        C116   1.411       .  A
C116        H120   1.084       .  S
C117        H127   1.111       .  S
C117        H128   1.110       .  S
C117        H129   1.108       .  S
C119        H130   1.110       .  S
C119        H131   1.110       .  S
C119        H132   1.111       .  S
C133        C134   1.400       .  A
C133        C138   1.417       .  A
C133        H143   1.084       .  S
C134        C139   1.494       .  S
C134        C135   1.400       .  A
C135        C140   1.513       .  S
C135        C136   1.399       .  A
C136        C137   1.416       .  A
C136        H141   1.056       .  S
C137        C138   1.436       .  A
C138        C142   1.496       .  S
C139        C144   1.413       .  A
C139        C148   1.402       .  A
C140        H156   1.110       .  S
C140        H157   1.107       .  S
C140        H158   1.111       .  S
C142        H153   1.111       .  S
C142        H154   1.110       .  S
C142        H155   1.086       .  S
C144        C149   1.509       .  S
C144        C729   1.409       .  A
C145        C146   1.409       .  A
C145        C728   1.409       .  A
C145        H150   1.084       .  S
C146        C731   1.423       .  A
C147        C151   1.507       .  S
C147        C148   1.411       .  A
C147        C730   1.423       .  A
C148        H152   1.084       .  S
C149        H159   1.111       .  S
C149        H160   1.110       .  S
C149        H161   1.108       .  S
C151        H162   1.110       .  S
C151        H164   1.111       .  S
C151        H747   1.110       .  S
H163        C735   1.110       .  S
C165        C166   1.402       .  A
C165        C170   1.411       .  A
C165        H175   1.083       .  S
C166        C171   1.495       .  S
C166        C167   1.407       .  A
C167        C172   1.511       .  S
C167        C168   1.401       .  A
C168        C169   1.413       .  A
C168        H173   1.065       .  S
C169        C170   1.429       .  A
C170        C174   1.501       .  S
C171        C176   1.414       .  A
C171        C472   1.406       .  A
C172        H188   1.107       .  S
C172        H189   1.110       .  S
C172        H190   1.111       .  S
C174        H185   1.110       .  S
C174        H186   1.110       .  S
C174        H187   1.094       .  S
C176        C181   1.507       .  S
C176        C177   1.408       .  A
C177        C470   1.405       .  A
C177        H182   1.082       .  S
C178        C179   1.412       .  A
C178        C469   1.405   1_554  A
C179        C183   1.505       .  S
C179        C180   1.403   1_554  A
C180        C463   1.406       .  A
C180        H184   1.084       .  S
C181        H191   1.111       .  S
C181        H192   1.107       .  S
C181        H193   1.110       .  S
C183        H194   1.108       .  S
C183        H195   1.108       .  S
C183        H196   1.110       .  S
C197        C198   1.388       .  A
C197        C202   1.403       .  A
C197        H207   1.086       .  S
C198        C203   1.482       .  S
C198        C199   1.401       .  A
C199        C204   1.506       .  S
C199        C200   1.405       .  A
C200        C201   1.410       .  A
C200        H205   1.062       .  S
C201        C202   1.445       .  A
C202        C206   1.501       .  S
C203        C208   1.409       .  A
C203        C504   1.398       .  A
C204        H221   1.110       .  S
C204        H222   1.111       .  S
C204        H512   1.110       .  S
C206        H217   1.071       .  S
C206        H218   1.110       .  S
C206        H219   1.111       .  S
C208        C213   1.505       .  S
C208        C209   1.404       .  A
C209        C502   1.408       .  A
C209        H214   1.084       .  S
C210        C211   1.424       .  A
C210        C501   1.409   1_554  A
C211        C215   1.508       .  S
C211        C212   1.405   1_554  A
C212        C495   1.398       .  A
C212        H216   1.084       .  S
C213        H223   1.111       .  S
C213        H224   1.110       .  S
C213        H225   1.108       .  S
C215        H226   1.110       .  S
C215        H227   1.111       .  S
C215        H228   1.111       .  S
H220        C496   1.110   1_554  S
C229        C230   1.402       .  A
C229        C234   1.409       .  A
C229        H239   1.084       .  S
C230        C235   1.490       .  S
C230        C523   1.413       .  A
C231        C236   1.506       .  S
C231        C232   1.405   1_556  A
C231        C522   1.413       .  A
C232        C233   1.404       .  A
C232        H237   1.084       .  S
C233        C526   1.420   1_554  A
C234        C238   1.508       .  S
C234        C525   1.419       .  A
C235        C240   1.402       .  A
C235        C244   1.392       .  A
C236        H252   1.110       .  S
C236        H254   1.111   1_556  S
C236        H545   1.110       .  S
C238        H249   1.111       .  S
C238        H250   1.110       .  S
C238        H543   1.107       .  S
C240        C245   1.506       .  S
C240        C241   1.406       .  A
C241        C242   1.417       .  A
C241        H246   1.069       .  S
C242        C243   1.447       .  A
C243        C247   1.508       .  S
C243        C244   1.409       .  A
C244        H248   1.086       .  S
C245        H255   1.111       .  S
C245        H256   1.110       .  S
C245        H257   1.110       .  S
C247        H258   1.106       .  S
C247        H259   1.093       .  S
C247        H260   1.112       .  S
H251        C530   1.107       .  S
H253        C528   1.110       .  S
C261        C262   1.401       .  A
C261        C850   1.408       .  A
C261        H271   1.084       .  S
C262        C267   1.490       .  S
C262        C555   1.411       .  A
C263        C268   1.503       .  S
C263        C264   1.409   1_556  A
C263        C554   1.411       .  A
C264        C849   1.408       .  A
C264        H269   1.084       .  S
C265        C848   1.408       .  A
C265        C558   1.422   1_554  A
C266        C270   1.507       .  S
C266        C845   1.408       .  A
C266        C557   1.422       .  A
C267        C272   1.401       .  A
C267        C276   1.382       .  A
C268        H285   1.110       .  S
C268        H286   1.111       .  S
C268        H576   1.109       .  S
C270        H281   1.111       .  S
C270        H282   1.109       .  S
C270        H575   1.108       .  S
C272        C277   1.504       .  S
C272        C273   1.414       .  A
C273        C274   1.423       .  A
C273        H278   1.069       .  S
C274        C275   1.446       .  A
C275        C279   1.489       .  S
C275        C276   1.403       .  A
C276        H280   1.086       .  S
C277        H287   1.111       .  S
C277        H288   1.110       .  S
C277        H289   1.110       .  S
C279        H290   1.111       .  S
C279        H291   1.096       .  S
C279        H292   1.079       .  S
H283        C562   1.108       .  S
H284        C560   1.109       .  S
C293        C294   1.591       .  S
C293        C295   1.599       .  S
C293        C297   1.587       .  S
C293        C566   1.604       .  S
C294        C296   1.583       .  S
C294        C298   1.601       .  S
C294        C534   1.578       .  S
C295        C296   1.588       .  S
C295        C299   1.572       .  S
C295        C493   1.575       .  S
C296        C300   1.564       .  S
C296        C461   1.562       .  S
C297        C298   1.574       .  S
C297        C299   1.585       .  S
C297        C429   1.586       .  S
C298        C300   1.576       .  S
C298        C397   1.575       .  S
C299        C300   1.594       .  S
C299        C374   1.562       .  S
C300        C342   1.589       .  S
O301        C311   1.283       .  A
O301      Ni1477   1.926   1_455  S
O302        C312   1.281       .  A
O302       Ni309   1.922       .  S
O303        C313   1.283       .  A
O303       Ni309   1.921       .  S
O304        C314   1.282       .  A
O304      Ni1477   1.927   1_455  S
O305        C314   1.283       .  A
O305      Ni1478   1.919       .  S
O306        C313   1.280       .  A
O306       Ni310   1.915       .  S
O307        C312   1.281       .  A
O307       Ni310   1.919       .  S
O308        C311   1.282       .  A
O308      Ni1478   1.922       .  S
Ni309      O1469   1.926       .  S
Ni309      O1472   1.927       .  S
Ni309      Ni310   2.383       .  S
Ni310      O1473   1.919       .  S
Ni310      O1476   1.922       .  S
C311        C525   1.485       .  S
C312        C365   1.479       .  S
C313        C502   1.492       .  S
C314        C406   1.501       .  S
O315        C325   1.285       .  A
O315       Ni323   1.931       .  S
O316        C326   1.283       .  A
O316       Ni323   1.929       .  S
O317        C327   1.284       .  A
O317       Ni323   1.930       .  S
O318        C328   1.282       .  A
O318       Ni323   1.925       .  S
O319        C328   1.283       .  A
O319       Ni324   1.930       .  S
O320        C327   1.283       .  A
O320       Ni324   1.926       .  S
O321        C326   1.281       .  A
O321       Ni324   1.921       .  S
O322        C325   1.282       .  A
O322       Ni324   1.927       .  S
Ni323      Ni324   2.384       .  S
C325        C438   1.501       .  S
C326        C470   1.480       .  S
C327        C557   1.498       .  S
C328        C333   1.486       .  S
C329        C330   1.404       .  A
C329        C334   1.405       .  A
C329        H339   1.084       .  S
C330        C335   1.501       .  S
C330        C331   1.418       .  A
C331        C336   1.508       .  S
C331        C332   1.411       .  A
C332        C333   1.405       .  A
C332        H337   1.084       .  S
C333        C334   1.416       .  A
C334        C338   1.505       .  S
C335        C340   1.407       .  A
C335        C344   1.398       .  A
C336        H352   1.107       .  S
C336        H353   1.111       .  S
C336        H354   1.111       .  S
C338        H349   1.110       .  S
C338        H350   1.107       .  S
C338        H351   1.107       .  S
C340        C345   1.509       .  S
C340        C341   1.408       .  A
C341        C342   1.416       .  A
C341        H346   1.062       .  S
C342        C343   1.432       .  A
C343        C347   1.487       .  S
C343        C344   1.409       .  A
C344        H348   1.084       .  S
C345        H355   1.109       .  S
C345        H356   1.107       .  S
C345        H357   1.110       .  S
C347        H358   1.110       .  S
C347        H359   1.083       .  S
C347        H360   1.111       .  S
C361        C362   1.401       .  A
C361        C366   1.405       .  A
C361        H371   1.084       .  S
C362        C367   1.483       .  S
C362        C363   1.412       .  A
C363        C368   1.506       .  S
C363        C364   1.405       .  A
C364        C365   1.403       .  A
C364        H369   1.084       .  S
C365        C366   1.416       .  A
C366        C370   1.508       .  S
C367        C372   1.402       .  A
C367        C376   1.391       .  A
C368        H384   1.110       .  S
C368        H385   1.110       .  S
C368        H386   1.111       .  S
C370        H381   1.111       .  S
C370        H382   1.109       .  S
C370        H383   1.110       .  S
C372        C377   1.507       .  S
C372        C373   1.403       .  A
C373        C374   1.414       .  A
C373        H378   1.066       .  S
C374        C375   1.438       .  A
C375        C379   1.496       .  S
C375        C376   1.405       .  A
C376        H380   1.085       .  S
C377        H387   1.111       .  S
C377        H388   1.110       .  S
C377        H389   1.110       .  S
C379        H390   1.111       .  S
C379        H391   1.110       .  S
C379        H392   1.085       .  S
C393        C394   1.391       .  A
C393        C398   1.404       .  A
C393        H403   1.086       .  S
C394        C399   1.488       .  S
C394        C395   1.405       .  A
C395        C400   1.506       .  S
C395        C396   1.408       .  A
C396        C397   1.414       .  A
C396        H401   1.072       .  S
C397        C398   1.435       .  A
C398        C402   1.493       .  S
C399        C404   1.410       .  A
C399        C408   1.400       .  A
C400        H416   1.110       .  S
C400        H417   1.109       .  S
C400        H418   1.111       .  S
C402        H413   1.111       .  S
C402        H414   1.109       .  S
C402        H415   1.082       .  S
C404        C409   1.506       .  S
C404        C405   1.403       .  A
C405        C406   1.409       .  A
C405        H410   1.083       .  S
C406        C407   1.425       .  A
C407        C411   1.507       .  S
C407        C408   1.411       .  A
C408        H412   1.084       .  S
C409        H419   1.111       .  S
C409        H420   1.110       .  S
C409        H421   1.109       .  S
C411        H422   1.110       .  S
C411        H423   1.110       .  S
C411        H424   1.111       .  S
C425        C426   1.400       .  A
C425        C430   1.417       .  A
C425        H435   1.084       .  S
C426        C431   1.493       .  S
C426        C427   1.400       .  A
C427        C432   1.513       .  S
C427        C428   1.399       .  A
C428        C429   1.417       .  A
C428        H433   1.056       .  S
C429        C430   1.435       .  A
C430        C434   1.496       .  S
C431        C436   1.412       .  A
C431        C440   1.401       .  A
C432        H448   1.110       .  S
C432        H449   1.108       .  S
C432        H450   1.111       .  S
C434        H445   1.111       .  S
C434        H446   1.110       .  S
C434        H447   1.086       .  S
C436        C441   1.509       .  S
C436       C1021   1.409       .  A
C437       C1020   1.409       .  A
C437        C438   1.409       .  A
C437        H442   1.084       .  S
C438       C1023   1.423       .  A
C439        C443   1.507       .  S
C439       C1022   1.423       .  A
C439        C440   1.410       .  A
C440        H444   1.084       .  S
C441        H451   1.111       .  S
C441        H452   1.110       .  S
C441        H453   1.108       .  S
C443        H454   1.110       .  S
C443       H1039   1.110       .  S
C443        H456   1.111       .  S
H455       C1027   1.110       .  S
C457        C458   1.402       .  A
C457        C462   1.411       .  A
C457        H467   1.083       .  S
C458        C463   1.495       .  S
C458        C459   1.407       .  A
C459        C464   1.511       .  S
C459        C460   1.401       .  A
C460        C461   1.413       .  A
C460        H465   1.066       .  S
C461        C462   1.429       .  A
C462        C466   1.501       .  S
C463        C468   1.415       .  A
C464        H480   1.107       .  S
C464        H481   1.110       .  S
C464        H482   1.111       .  S
C466        H477   1.110       .  S
C466        H478   1.110       .  S
C466        H479   1.094       .  S
C468        C473   1.507       .  S
C468        C469   1.409       .  A
C469        H474   1.082       .  S
C470        C471   1.412       .  A
C471        C475   1.505       .  S
C471        C472   1.403       .  A
C472        H476   1.084       .  S
C473        H483   1.111       .  S
C473        H484   1.107       .  S
C473        H485   1.110       .  S
C475        H486   1.108       .  S
C475        H487   1.108       .  S
C475        H488   1.110       .  S
C489        C490   1.388       .  A
C489        C494   1.403       .  A
C489        H499   1.086       .  S
C490        C495   1.482       .  S
C490        C491   1.401       .  A
C491        C496   1.506       .  S
C491        C492   1.405       .  A
C492        C493   1.410       .  A
C492        H497   1.061       .  S
C493        C494   1.445       .  A
C494        C498   1.501       .  S
C495        C500   1.409       .  A
C496        H513   1.110       .  S
C496        H514   1.111       .  S
C498        H509   1.071       .  S
C498        H510   1.110       .  S
C498        H511   1.111       .  S
C500        C505   1.505       .  S
C500        C501   1.405       .  A
C501        H506   1.084       .  S
C502        C503   1.424       .  A
C503        C507   1.508       .  S
C503        C504   1.405       .  A
C504        H508   1.084       .  S
C505        H515   1.111       .  S
C505        H516   1.110       .  S
C505        H517   1.107       .  S
C507        H518   1.110       .  S
C507        H519   1.111       .  S
C507        H520   1.111       .  S
C521        C522   1.402       .  A
C521        C526   1.409       .  A
C521        H531   1.084       .  S
C522        C527   1.490       .  S
C523        C528   1.506       .  S
C523        C524   1.405       .  A
C524        C525   1.403       .  A
C524        H529   1.084       .  S
C526        C530   1.508       .  S
C527        C532   1.402       .  A
C527        C536   1.392       .  A
C528        H544   1.110       .  S
C528        H546   1.111       .  S
C530        H541   1.111       .  S
C530        H542   1.110       .  S
C532        C537   1.506       .  S
C532        C533   1.407       .  A
C533        C534   1.417       .  A
C533        H538   1.069       .  S
C534        C535   1.447       .  A
C535        C539   1.509       .  S
C535        C536   1.409       .  A
C536        H540   1.086       .  S
C537        H547   1.111       .  S
C537        H548   1.110       .  S
C537        H549   1.110       .  S
C539        H550   1.105       .  S
C539        H551   1.093       .  S
C539        H552   1.112       .  S
C553        C554   1.401       .  A
C553       C1142   1.408       .  A
C553        H563   1.084       .  S
C554        C559   1.491       .  S
C555        C560   1.504       .  S
C555        C556   1.408       .  A
C556       C1141   1.408       .  A
C556        H561   1.084       .  S
C557       C1140   1.408       .  A
C558        C562   1.507       .  S
C558       C1137   1.408       .  A
C559        C564   1.401       .  A
C559        C568   1.382       .  A
C560        H577   1.110       .  S
C560        H578   1.111       .  S
C562        H573   1.111       .  S
C562        H574   1.109       .  S
C564        C569   1.504       .  S
C564        C565   1.414       .  A
C565        C566   1.423       .  A
C565        H570   1.069       .  S
C566        C567   1.446       .  A
C567        C571   1.489       .  S
C567        C568   1.404       .  A
C568        H572   1.086       .  S
C569        H579   1.111       .  S
C569        H580   1.110       .  S
C569        H581   1.110       .  S
C571        H582   1.111       .  S
C571        H583   1.097       .  S
C571        H584   1.079       .  S
C585        C586   1.591       .  S
C585        C587   1.599       .  S
C585        C589   1.586       .  S
C585        C858   1.603       .  S
C586        C588   1.583       .  S
C586        C590   1.601       .  S
C586        C826   1.577       .  S
C587        C588   1.588       .  S
C587        C591   1.572       .  S
C587        C785   1.575       .  S
C588        C592   1.564       .  S
C588        C753   1.562       .  S
C589        C590   1.574       .  S
C589        C591   1.585       .  S
C589        C721   1.587       .  S
C590        C592   1.576       .  S
C590        C689   1.575       .  S
C591        C592   1.593       .  S
C591        C666   1.562       .  S
C592        C634   1.589       .  S
O593        C603   1.283       .  A
O593      Ni1769   1.927   1_455  S
O594        C604   1.282       .  A
O594       Ni601   1.922       .  S
O595        C605   1.283       .  A
O595       Ni601   1.922       .  S
O596        C606   1.282       .  A
O596      Ni1769   1.928   1_455  S
O597        C606   1.283       .  A
O597      Ni1770   1.919       .  S
O598        C605   1.280       .  A
O598       Ni602   1.915       .  S
O599        C604   1.281       .  A
O599       Ni602   1.919       .  S
O600        C603   1.282       .  A
O600      Ni1770   1.922       .  S
Ni601      O1761   1.927       .  S
Ni601      O1764   1.928       .  S
Ni601      Ni602   2.383       .  S
Ni602      O1765   1.919       .  S
Ni602      O1768   1.922       .  S
C603        C817   1.486       .  S
C604        C657   1.479       .  S
C605        C794   1.493       .  S
C606        C698   1.501       .  S
O607        C617   1.285       .  A
O607       Ni615   1.932       .  S
O608        C618   1.283       .  A
O608       Ni615   1.930       .  S
O609        C619   1.283       .  A
O609       Ni615   1.929       .  S
O610        C620   1.282       .  A
O610       Ni615   1.925       .  S
O611        C620   1.283       .  A
O611       Ni616   1.931       .  S
O612        C619   1.283       .  A
O612       Ni616   1.927       .  S
O613        C618   1.281       .  A
O613       Ni616   1.920       .  S
O614        C617   1.282       .  A
O614       Ni616   1.928       .  S
Ni615      Ni616   2.384       .  S
C617        C730   1.502   1_565  S
C618        C762   1.481       .  S
C619        C849   1.498   1_565  S
C620        C625   1.486       .  S
C621        C622   1.404       .  A
C621        C626   1.405       .  A
C621        H631   1.084       .  S
C622        C627   1.501       .  S
C622        C623   1.418       .  A
C623        C628   1.508       .  S
C623        C624   1.411       .  A
C624        C625   1.405       .  A
C624        H629   1.084       .  S
C625        C626   1.416       .  A
C626        C630   1.505       .  S
C627        C632   1.407       .  A
C627        C636   1.398       .  A
C628        H644   1.107       .  S
C628        H645   1.111       .  S
C628        H646   1.111       .  S
C630        H641   1.110       .  S
C630        H642   1.107       .  S
C630        H643   1.107       .  S
C632        C637   1.509       .  S
C632        C633   1.408       .  A
C633        C634   1.416       .  A
C633        H638   1.061       .  S
C634        C635   1.432       .  A
C635        C639   1.488       .  S
C635        C636   1.409       .  A
C636        H640   1.084       .  S
C637        H647   1.109       .  S
C637        H648   1.107       .  S
C637        H649   1.110       .  S
C639        H650   1.110       .  S
C639        H651   1.083       .  S
C639        H652   1.111       .  S
C653        C654   1.401       .  A
C653        C658   1.406       .  A
C653        H663   1.084       .  S
C654        C659   1.483       .  S
C654        C655   1.411       .  A
C655        C660   1.506       .  S
C655        C656   1.405       .  A
C656        C657   1.403       .  A
C656        H661   1.084       .  S
C657        C658   1.417       .  A
C658        C662   1.508       .  S
C659        C664   1.402       .  A
C659        C668   1.391       .  A
C660        H676   1.110       .  S
C660        H677   1.110       .  S
C660        H678   1.111       .  S
C662        H673   1.111       .  S
C662        H674   1.109       .  S
C662        H675   1.110       .  S
C664        C669   1.507       .  S
C664        C665   1.403       .  A
C665        C666   1.414       .  A
C665        H670   1.066       .  S
C666        C667   1.438       .  A
C667        C671   1.496       .  S
C667        C668   1.405       .  A
C668        H672   1.085       .  S
C669        H679   1.111       .  S
C669        H680   1.110       .  S
C669        H681   1.110       .  S
C671        H682   1.111       .  S
C671        H683   1.110       .  S
C671        H684   1.085       .  S
C685        C686   1.391       .  A
C685        C690   1.404       .  A
C685        H695   1.085       .  S
C686        C691   1.488       .  S
C686        C687   1.405       .  A
C687        C692   1.506       .  S
C687        C688   1.408       .  A
C688        C689   1.414       .  A
C688        H693   1.072       .  S
C689        C690   1.435       .  A
C690        C694   1.493       .  S
C691        C696   1.410       .  A
C691        C700   1.400       .  A
C692        H708   1.110       .  S
C692        H709   1.109       .  S
C692        H710   1.111       .  S
C694        H705   1.111       .  S
C694        H706   1.109       .  S
C694        H707   1.083       .  S
C696        C701   1.506       .  S
C696        C697   1.403       .  A
C697        C698   1.409       .  A
C697        H702   1.083       .  S
C698        C699   1.425       .  A
C699        C703   1.507       .  S
C699        C700   1.411       .  A
C700        H704   1.084       .  S
C701        H711   1.111       .  S
C701        H712   1.110       .  S
C701        H713   1.108       .  S
C703        H714   1.110       .  S
C703        H715   1.110       .  S
C703        H716   1.111       .  S
C717        C718   1.400       .  A
C717        C722   1.417       .  A
C717        H727   1.084       .  S
C718        C723   1.494       .  S
C718        C719   1.400       .  A
C719        C724   1.513       .  S
C719        C720   1.399       .  A
C720        C721   1.416       .  A
C720        H725   1.056       .  S
C721        C722   1.436       .  A
C722        C726   1.496       .  S
C723        C728   1.413       .  A
C723        C732   1.402       .  A
C724        H740   1.110       .  S
C724        H741   1.107       .  S
C724        H742   1.111       .  S
C726        H737   1.111       .  S
C726        H738   1.110       .  S
C726        H739   1.086       .  S
C728        C733   1.509       .  S
C729        C730   1.409       .  A
C729        H734   1.084   1_545  S
C731        C735   1.507       .  S
C731        C732   1.411       .  A
C732        H736   1.084       .  S
C733        H743   1.111       .  S
C733        H744   1.110       .  S
C733        H745   1.108       .  S
C735        H746   1.110       .  S
C735        H748   1.111       .  S
C749        C750   1.402       .  A
C749        C754   1.411       .  A
C749        H759   1.083       .  S
C750        C755   1.495       .  S
C750        C751   1.407       .  A
C751        C756   1.511       .  S
C751        C752   1.401       .  A
C752        C753   1.413       .  A
C752        H757   1.065       .  S
C753        C754   1.429       .  A
C754        C758   1.501       .  S
C755        C760   1.414       .  A
C755       C1056   1.406       .  A
C756        H772   1.107       .  S
C756        H773   1.110       .  S
C756        H774   1.111       .  S
C758        H769   1.110       .  S
C758        H770   1.110       .  S
C758        H771   1.094       .  S
C760        C765   1.507       .  S
C760        C761   1.408       .  A
C761       C1054   1.405       .  A
C761        H766   1.082       .  S
C762       C1053   1.405   1_554  A
C762        C763   1.412       .  A
C763        C767   1.505       .  S
C763        C764   1.403   1_554  A
C764       C1047   1.406       .  A
C764        H768   1.084       .  S
C765        H775   1.111       .  S
C765        H776   1.107       .  S
C765        H777   1.110       .  S
C767        H778   1.108       .  S
C767        H779   1.108       .  S
C767        H780   1.110       .  S
C781        C782   1.388       .  A
C781        C786   1.403       .  A
C781        H791   1.086       .  S
C782        C787   1.482       .  S
C782        C783   1.401       .  A
C783        C788   1.506       .  S
C783        C784   1.405       .  A
C784        C785   1.410       .  A
C784        H789   1.062       .  S
C785        C786   1.445       .  A
C786        C790   1.501       .  S
C787        C792   1.409       .  A
C787       C1088   1.398       .  A
C788       H1096   1.110       .  S
C788        H805   1.110       .  S
C788        H806   1.111       .  S
C790        H801   1.071       .  S
C790        H802   1.110       .  S
C790        H803   1.111       .  S
C792        C797   1.505       .  S
C792        C793   1.404       .  A
C793       C1086   1.408       .  A
C793        H798   1.084       .  S
C794       C1085   1.409   1_554  A
C794        C795   1.424       .  A
C795        C799   1.508       .  S
C795        C796   1.405   1_554  A
C796       C1079   1.398       .  A
C796        H800   1.084       .  S
C797        H807   1.111       .  S
C797        H808   1.110       .  S
C797        H809   1.108       .  S
C799        H810   1.110       .  S
C799        H811   1.111       .  S
C799        H812   1.111       .  S
H804       C1080   1.110   1_554  S
C813        C814   1.402       .  A
C813        C818   1.409       .  A
C813        H823   1.084       .  S
C814        C819   1.490       .  S
C814       C1107   1.413       .  A
C815        C820   1.506       .  S
C815       C1106   1.413       .  A
C815        C816   1.405   1_556  A
C816        C817   1.404       .  A
C816        H821   1.084       .  S
C817       C1110   1.420   1_554  A
C818        C822   1.508       .  S
C818       C1109   1.419       .  A
C819        C824   1.402       .  A
C819        C828   1.392       .  A
C820        H836   1.110       .  S
C820       H1129   1.110       .  S
C820        H838   1.111   1_556  S
C822        H833   1.111       .  S
C822        H834   1.110       .  S
C822       H1127   1.107       .  S
C824        C829   1.506       .  S
C824        C825   1.406       .  A
C825        C826   1.417       .  A
C825        H830   1.069       .  S
C826        C827   1.447       .  A
C827        C831   1.508       .  S
C827        C828   1.409       .  A
C828        H832   1.086       .  S
C829        H839   1.111       .  S
C829        H840   1.110       .  S
C829        H841   1.110       .  S
C831        H842   1.106       .  S
C831        H843   1.093       .  S
C831        H844   1.112       .  S
H835       C1114   1.107       .  S
H837       C1112   1.110       .  S
C845        C846   1.401       .  A
C845        H855   1.084       .  S
C846        C851   1.490       .  S
C846       C1139   1.411       .  A
C847        C852   1.503       .  S
C847       C1138   1.411       .  A
C847        C848   1.409   1_556  A
C848        H853   1.084       .  S
C849       C1142   1.422   1_554  A
C850        C854   1.507   1_545  S
C850       C1141   1.422       .  A
C851        C856   1.401       .  A
C851        C860   1.382       .  A
C852       H1160   1.109       .  S
C852        H869   1.110       .  S
C852        H870   1.111       .  S
C854        H865   1.111       .  S
C854        H866   1.109       .  S
C854       H1159   1.108       .  S
C856        C861   1.504       .  S
C856        C857   1.414       .  A
C857        C858   1.423       .  A
C857        H862   1.069       .  S
C858        C859   1.446       .  A
C859        C863   1.489       .  S
C859        C860   1.403       .  A
C860        H864   1.086       .  S
C861        H871   1.111       .  S
C861        H872   1.110       .  S
C861        H873   1.110       .  S
C863        H874   1.111       .  S
C863        H875   1.096       .  S
C863        H876   1.079       .  S
H867       C1146   1.108       .  S
H868       C1144   1.109       .  S
C877        C878   1.591       .  S
C877        C879   1.599       .  S
C877        C881   1.587       .  S
C877       C1150   1.604       .  S
C878        C880   1.583       .  S
C878        C882   1.601       .  S
C878       C1118   1.578       .  S
C879        C880   1.588       .  S
C879        C883   1.572       .  S
C879       C1077   1.575       .  S
C880        C884   1.564       .  S
C880       C1045   1.562       .  S
C881        C882   1.574       .  S
C881        C883   1.585       .  S
C881       C1013   1.586       .  S
C882        C884   1.576       .  S
C882        C981   1.575       .  S
C883        C884   1.594       .  S
C883        C958   1.562       .  S
C884        C926   1.589       .  S
O885        C895   1.283       .  A
O885      Ni2061   1.926   1_455  S
O886        C896   1.281       .  A
O886       Ni893   1.922       .  S
O887        C897   1.283       .  A
O887       Ni893   1.921       .  S
O888        C898   1.282       .  A
O888      Ni2061   1.927   1_455  S
O889        C898   1.283       .  A
O889      Ni2062   1.919       .  S
O890        C897   1.280       .  A
O890       Ni894   1.915       .  S
O891        C896   1.281       .  A
O891       Ni894   1.919       .  S
O892        C895   1.282       .  A
O892      Ni2062   1.922       .  S
Ni893      O2053   1.926       .  S
Ni893      O2056   1.927       .  S
Ni893      Ni894   2.383       .  S
Ni894      O2057   1.919       .  S
Ni894      O2060   1.922       .  S
C895       C1109   1.485       .  S
C896        C949   1.479       .  S
C897       C1086   1.492       .  S
C898        C990   1.501       .  S
O899        C909   1.285       .  A
O899       Ni907   1.931       .  S
O900        C910   1.283       .  A
O900       Ni907   1.929       .  S
O901        C911   1.284       .  A
O901       Ni907   1.930       .  S
O902        C912   1.282       .  A
O902       Ni907   1.925       .  S
O903        C912   1.283       .  A
O903       Ni908   1.930       .  S
O904        C911   1.283       .  A
O904       Ni908   1.926       .  S
O905        C910   1.281       .  A
O905       Ni908   1.921       .  S
O906        C909   1.282       .  A
O906       Ni908   1.927       .  S
Ni907      Ni908   2.384       .  S
C909       C1022   1.501   1_565  S
C910       C1054   1.480       .  S
C911       C1141   1.498   1_565  S
C912        C917   1.486       .  S
C913        C914   1.404       .  A
C913        C918   1.405       .  A
C913        H923   1.084       .  S
C914        C919   1.501       .  S
C914        C915   1.418       .  A
C915        C920   1.508       .  S
C915        C916   1.411       .  A
C916        C917   1.405       .  A
C916        H921   1.084       .  S
C917        C918   1.416       .  A
C918        C922   1.505       .  S
C919        C924   1.407       .  A
C919        C928   1.398       .  A
C920        H936   1.107       .  S
C920        H937   1.111       .  S
C920        H938   1.111       .  S
C922        H933   1.110       .  S
C922        H934   1.107       .  S
C922        H935   1.107       .  S
C924        C929   1.509       .  S
C924        C925   1.408       .  A
C925        C926   1.416       .  A
C925        H930   1.062       .  S
C926        C927   1.432       .  A
C927        C931   1.487       .  S
C927        C928   1.409       .  A
C928        H932   1.084       .  S
C929        H939   1.109       .  S
C929        H940   1.107       .  S
C929        H941   1.110       .  S
C931        H942   1.110       .  S
C931        H943   1.083       .  S
C931        H944   1.111       .  S
C945        C946   1.401       .  A
C945        C950   1.405       .  A
C945        H955   1.084       .  S
C946        C951   1.483       .  S
C946        C947   1.412       .  A
C947        C952   1.506       .  S
C947        C948   1.405       .  A
C948        C949   1.403       .  A
C948        H953   1.084       .  S
C949        C950   1.416       .  A
C950        C954   1.508       .  S
C951        C956   1.402       .  A
C951        C960   1.391       .  A
C952        H968   1.110       .  S
C952        H969   1.110       .  S
C952        H970   1.111       .  S
C954        H965   1.111       .  S
C954        H966   1.109       .  S
C954        H967   1.110       .  S
C956        C961   1.507       .  S
C956        C957   1.403       .  A
C957        C958   1.414       .  A
C957        H962   1.066       .  S
C958        C959   1.438       .  A
C959        C963   1.496       .  S
C959        C960   1.405       .  A
C960        H964   1.085       .  S
C961        H971   1.111       .  S
C961        H972   1.110       .  S
C961        H973   1.110       .  S
C963        H974   1.111       .  S
C963        H975   1.110       .  S
C963        H976   1.085       .  S
C977        C978   1.391       .  A
C977        C982   1.404       .  A
C977        H987   1.086       .  S
C978        C983   1.488       .  S
C978        C979   1.405       .  A
C979        C984   1.506       .  S
C979        C980   1.408       .  A
C980        C981   1.414       .  A
C980        H985   1.072       .  S
C981        C982   1.435       .  A
C982        C986   1.493       .  S
C983        C988   1.410       .  A
C983        C992   1.400       .  A
C984       H1000   1.110       .  S
C984       H1001   1.109       .  S
C984       H1002   1.111       .  S
C986        H997   1.111       .  S
C986        H998   1.109       .  S
C986        H999   1.082       .  S
C988        C993   1.506       .  S
C988        C989   1.403       .  A
C989        C990   1.409       .  A
C989        H994   1.083       .  S
C990        C991   1.425       .  A
C991        C995   1.507       .  S
C991        C992   1.411       .  A
C992        H996   1.084       .  S
C993       H1003   1.111       .  S
C993       H1004   1.110       .  S
C993       H1005   1.109       .  S
C995       H1006   1.110       .  S
C995       H1007   1.110       .  S
C995       H1008   1.111       .  S
C1009      C1010   1.400       .  A
C1009      C1014   1.417       .  A
C1009      H1019   1.084       .  S
C1010      C1015   1.493       .  S
C1010      C1011   1.400       .  A
C1011      C1016   1.513       .  S
C1011      C1012   1.399       .  A
C1012      C1013   1.417       .  A
C1012      H1017   1.056       .  S
C1013      C1014   1.435       .  A
C1014      C1018   1.496       .  S
C1015      C1020   1.412       .  A
C1015      C1024   1.401       .  A
C1016      H1032   1.110       .  S
C1016      H1033   1.108       .  S
C1016      H1034   1.111       .  S
C1018      H1029   1.111       .  S
C1018      H1030   1.110       .  S
C1018      H1031   1.086       .  S
C1020      C1025   1.509       .  S
C1021      C1022   1.409       .  A
C1021      H1026   1.084   1_545  S
C1023      C1027   1.507       .  S
C1023      C1024   1.410       .  A
C1024      H1028   1.084       .  S
C1025      H1035   1.111       .  S
C1025      H1036   1.110       .  S
C1025      H1037   1.108       .  S
C1027      H1038   1.110       .  S
C1027      H1040   1.111       .  S
C1041      C1042   1.402       .  A
C1041      C1046   1.411       .  A
C1041      H1051   1.083       .  S
C1042      C1047   1.495       .  S
C1042      C1043   1.407       .  A
C1043      C1048   1.511       .  S
C1043      C1044   1.401       .  A
C1044      C1045   1.413       .  A
C1044      H1049   1.066       .  S
C1045      C1046   1.429       .  A
C1046      C1050   1.501       .  S
C1047      C1052   1.415       .  A
C1048      H1064   1.107       .  S
C1048      H1065   1.110       .  S
C1048      H1066   1.111       .  S
C1050      H1061   1.110       .  S
C1050      H1062   1.110       .  S
C1050      H1063   1.094       .  S
C1052      C1057   1.507       .  S
C1052      C1053   1.409       .  A
C1053      H1058   1.082       .  S
C1054      C1055   1.412       .  A
C1055      C1059   1.505       .  S
C1055      C1056   1.403       .  A
C1056      H1060   1.084       .  S
C1057      H1067   1.111       .  S
C1057      H1068   1.107       .  S
C1057      H1069   1.110       .  S
C1059      H1070   1.108       .  S
C1059      H1071   1.108       .  S
C1059      H1072   1.110       .  S
C1073      C1074   1.388       .  A
C1073      C1078   1.403       .  A
C1073      H1083   1.086       .  S
C1074      C1079   1.482       .  S
C1074      C1075   1.401       .  A
C1075      C1080   1.506       .  S
C1075      C1076   1.405       .  A
C1076      C1077   1.410       .  A
C1076      H1081   1.061       .  S
C1077      C1078   1.445       .  A
C1078      C1082   1.501       .  S
C1079      C1084   1.409       .  A
C1080      H1097   1.110       .  S
C1080      H1098   1.111       .  S
C1082      H1093   1.071       .  S
C1082      H1094   1.110       .  S
C1082      H1095   1.111       .  S
C1084      C1089   1.505       .  S
C1084      C1085   1.405       .  A
C1085      H1090   1.084       .  S
C1086      C1087   1.424       .  A
C1087      C1091   1.508       .  S
C1087      C1088   1.405       .  A
C1088      H1092   1.084       .  S
C1089      H1099   1.111       .  S
C1089      H1100   1.110       .  S
C1089      H1101   1.107       .  S
C1091      H1102   1.110       .  S
C1091      H1103   1.111       .  S
C1091      H1104   1.111       .  S
C1105      C1106   1.402       .  A
C1105      C1110   1.409       .  A
C1105      H1115   1.084       .  S
C1106      C1111   1.490       .  S
C1107      C1112   1.506       .  S
C1107      C1108   1.405       .  A
C1108      C1109   1.403       .  A
C1108      H1113   1.084       .  S
C1110      C1114   1.508       .  S
C1111      C1116   1.402       .  A
C1111      C1120   1.392       .  A
C1112      H1128   1.110       .  S
C1112      H1130   1.111       .  S
C1114      H1125   1.111       .  S
C1114      H1126   1.110       .  S
C1116      C1121   1.506       .  S
C1116      C1117   1.407       .  A
C1117      C1118   1.417       .  A
C1117      H1122   1.069       .  S
C1118      C1119   1.447       .  A
C1119      C1123   1.509       .  S
C1119      C1120   1.409       .  A
C1120      H1124   1.086       .  S
C1121      H1131   1.111       .  S
C1121      H1132   1.110       .  S
C1121      H1133   1.110       .  S
C1123      H1134   1.105       .  S
C1123      H1135   1.093       .  S
C1123      H1136   1.112       .  S
C1137      C1138   1.401       .  A
C1137      H1147   1.084       .  S
C1138      C1143   1.491       .  S
C1139      C1144   1.504       .  S
C1139      C1140   1.408       .  A
C1140      H1145   1.084       .  S
C1142      C1146   1.507   1_545  S
C1143      C1148   1.401       .  A
C1143      C1152   1.382       .  A
C1144      H1161   1.110       .  S
C1144      H1162   1.111       .  S
C1146      H1157   1.111       .  S
C1146      H1158   1.109       .  S
C1148      C1153   1.504       .  S
C1148      C1149   1.414       .  A
C1149      C1150   1.423       .  A
C1149      H1154   1.069       .  S
C1150      C1151   1.446       .  A
C1151      C1155   1.489       .  S
C1151      C1152   1.404       .  A
C1152      H1156   1.086       .  S
C1153      H1163   1.111       .  S
C1153      H1164   1.110       .  S
C1153      H1165   1.110       .  S
C1155      H1166   1.111       .  S
C1155      H1167   1.097       .  S
C1155      H1168   1.079       .  S
C1169      C1170   1.591       .  S
C1169      C1171   1.599       .  S
C1169      C1173   1.586       .  S
C1169      C1442   1.603       .  S
C1170      C1172   1.583       .  S
C1170      C1174   1.601       .  S
C1170      C1410   1.577       .  S
C1171      C1172   1.588       .  S
C1171      C1175   1.572       .  S
C1171      C1369   1.575       .  S
C1172      C1176   1.564       .  S
C1172      C1337   1.562       .  S
C1173      C1174   1.574       .  S
C1173      C1175   1.585       .  S
C1173      C1305   1.587       .  S
C1174      C1176   1.576       .  S
C1174      C1273   1.575       .  S
C1175      C1176   1.593       .  S
C1175      C1250   1.562       .  S
C1176      C1218   1.589       .  S
O1177      C1187   1.283       .  A
O1178      C1188   1.282       .  A
O1178     Ni1185   1.922       .  S
O1179      C1189   1.283       .  A
O1179     Ni1185   1.922       .  S
O1180      C1190   1.282       .  A
O1181      C1190   1.283       .  A
O1182      C1189   1.280       .  A
O1182     Ni1186   1.915   1_655  S
O1183      C1188   1.281       .  A
O1183     Ni1186   1.919   1_655  S
O1184      C1187   1.282       .  A
Ni1185    Ni1186   2.383   1_655  S
C1187      C1401   1.486       .  S
C1188      C1241   1.479       .  S
C1189      C1378   1.493       .  S
C1190      C1282   1.501       .  S
O1191      C1201   1.285       .  A
O1191     Ni1199   1.932       .  S
O1192      C1202   1.283       .  A
O1192     Ni1199   1.930       .  S
O1193      C1203   1.283       .  A
O1193     Ni1199   1.929       .  S
O1194      C1204   1.282       .  A
O1194     Ni1199   1.925       .  S
O1195      C1204   1.283       .  A
O1195     Ni1200   1.931       .  S
O1196      C1203   1.283       .  A
O1196     Ni1200   1.927       .  S
O1197      C1202   1.281       .  A
O1197     Ni1200   1.920       .  S
O1198      C1201   1.282       .  A
O1198     Ni1200   1.928       .  S
Ni1199    Ni1200   2.384       .  S
C1201      C1314   1.502       .  S
C1202      C1346   1.481       .  S
C1203      C1433   1.498       .  S
C1204      C1209   1.486       .  S
C1205      C1206   1.404       .  A
C1205      C1210   1.405       .  A
C1205      H1215   1.084       .  S
C1206      C1211   1.501       .  S
C1206      C1207   1.418       .  A
C1207      C1212   1.508       .  S
C1207      C1208   1.411       .  A
C1208      C1209   1.405       .  A
C1208      H1213   1.084       .  S
C1209      C1210   1.416       .  A
C1210      C1214   1.505       .  S
C1211      C1216   1.407       .  A
C1211      C1220   1.398       .  A
C1212      H1228   1.107       .  S
C1212      H1229   1.111       .  S
C1212      H1230   1.111       .  S
C1214      H1225   1.110       .  S
C1214      H1226   1.107       .  S
C1214      H1227   1.107       .  S
C1216      C1221   1.509       .  S
C1216      C1217   1.408       .  A
C1217      C1218   1.416       .  A
C1217      H1222   1.061       .  S
C1218      C1219   1.432       .  A
C1219      C1223   1.488       .  S
C1219      C1220   1.409       .  A
C1220      H1224   1.084       .  S
C1221      H1231   1.109       .  S
C1221      H1232   1.107       .  S
C1221      H1233   1.110       .  S
C1223      H1234   1.110       .  S
C1223      H1235   1.083       .  S
C1223      H1236   1.111       .  S
C1237      C1238   1.401       .  A
C1237      C1242   1.406       .  A
C1237      H1247   1.084       .  S
C1238      C1243   1.483       .  S
C1238      C1239   1.411       .  A
C1239      C1244   1.506       .  S
C1239      C1240   1.405       .  A
C1240      C1241   1.403       .  A
C1240      H1245   1.084       .  S
C1241      C1242   1.417       .  A
C1242      C1246   1.508       .  S
C1243      C1248   1.402       .  A
C1243      C1252   1.391       .  A
C1244      H1260   1.110       .  S
C1244      H1261   1.110       .  S
C1244      H1262   1.111       .  S
C1246      H1257   1.111       .  S
C1246      H1258   1.109       .  S
C1246      H1259   1.110       .  S
C1248      C1253   1.507       .  S
C1248      C1249   1.403       .  A
C1249      C1250   1.414       .  A
C1249      H1254   1.066       .  S
C1250      C1251   1.438       .  A
C1251      C1255   1.496       .  S
C1251      C1252   1.405       .  A
C1252      H1256   1.085       .  S
C1253      H1263   1.111       .  S
C1253      H1264   1.110       .  S
C1253      H1265   1.110       .  S
C1255      H1266   1.111       .  S
C1255      H1267   1.110       .  S
C1255      H1268   1.085       .  S
C1269      C1270   1.391       .  A
C1269      C1274   1.404       .  A
C1269      H1279   1.085       .  S
C1270      C1275   1.488       .  S
C1270      C1271   1.405       .  A
C1271      C1276   1.506       .  S
C1271      C1272   1.408       .  A
C1272      C1273   1.414       .  A
C1272      H1277   1.072       .  S
C1273      C1274   1.435       .  A
C1274      C1278   1.493       .  S
C1275      C1280   1.410       .  A
C1275      C1284   1.400       .  A
C1276      H1292   1.110       .  S
C1276      H1293   1.109       .  S
C1276      H1294   1.111       .  S
C1278      H1289   1.111       .  S
C1278      H1290   1.109       .  S
C1278      H1291   1.082       .  S
C1280      C1285   1.506       .  S
C1280      C1281   1.403       .  A
C1281      C1282   1.409       .  A
C1281      H1286   1.083       .  S
C1282      C1283   1.425       .  A
C1283      C1287   1.507       .  S
C1283      C1284   1.411       .  A
C1284      H1288   1.084       .  S
C1285      H1295   1.111       .  S
C1285      H1296   1.110       .  S
C1285      H1297   1.108       .  S
C1287      H1298   1.110       .  S
C1287      H1299   1.110       .  S
C1287      H1300   1.111       .  S
C1301      C1302   1.400       .  A
C1301      C1306   1.417       .  A
C1301      H1311   1.084       .  S
C1302      C1307   1.494       .  S
C1302      C1303   1.400       .  A
C1303      C1308   1.513       .  S
C1303      C1304   1.399       .  A
C1304      C1305   1.416       .  A
C1304      H1309   1.056       .  S
C1305      C1306   1.436       .  A
C1306      C1310   1.496       .  S
C1307      C1312   1.413       .  A
C1307      C1316   1.402       .  A
C1308      H1324   1.110       .  S
C1308      H1325   1.107       .  S
C1308      H1326   1.111       .  S
C1310      H1321   1.111       .  S
C1310      H1322   1.110       .  S
C1310      H1323   1.086       .  S
C1312      C1317   1.509       .  S
C1312      C1897   1.409       .  A
C1313      C1896   1.409       .  A
C1313      C1314   1.409       .  A
C1313      H1318   1.084       .  S
C1314      C1899   1.423       .  A
C1315      C1319   1.507       .  S
C1315      C1898   1.423       .  A
C1315      C1316   1.411       .  A
C1316      H1320   1.084       .  S
C1317      H1327   1.111       .  S
C1317      H1328   1.110       .  S
C1317      H1329   1.108       .  S
C1319      H1330   1.110       .  S
C1319      H1915   1.110       .  S
C1319      H1332   1.111       .  S
H1331      C1903   1.110       .  S
C1333      C1334   1.402       .  A
C1333      C1338   1.411       .  A
C1333      H1343   1.083       .  S
C1334      C1339   1.495       .  S
C1334      C1335   1.407       .  A
C1335      C1340   1.511       .  S
C1335      C1336   1.401       .  A
C1336      C1337   1.413       .  A
C1336      H1341   1.065       .  S
C1337      C1338   1.429       .  A
C1338      C1342   1.501       .  S
C1339      C1344   1.414       .  A
C1339      C1640   1.406       .  A
C1340      H1356   1.107       .  S
C1340      H1357   1.110       .  S
C1340      H1358   1.111       .  S
C1342      H1353   1.110       .  S
C1342      H1354   1.110       .  S
C1342      H1355   1.094       .  S
C1344      C1349   1.507       .  S
C1344      C1345   1.408       .  A
C1345      C1638   1.405       .  A
C1345      H1350   1.082       .  S
C1346      C1637   1.405   1_554  A
C1346      C1347   1.412       .  A
C1347      C1351   1.505       .  S
C1347      C1348   1.403   1_554  A
C1348      C1631   1.406       .  A
C1348      H1352   1.084       .  S
C1349      H1359   1.111       .  S
C1349      H1360   1.107       .  S
C1349      H1361   1.110       .  S
C1351      H1362   1.108       .  S
C1351      H1363   1.108       .  S
C1351      H1364   1.110       .  S
C1365      C1366   1.388       .  A
C1365      C1370   1.403       .  A
C1365      H1375   1.086       .  S
C1366      C1371   1.482       .  S
C1366      C1367   1.401       .  A
C1367      C1372   1.506       .  S
C1367      C1368   1.405       .  A
C1368      C1369   1.410       .  A
C1368      H1373   1.062       .  S
C1369      C1370   1.445       .  A
C1370      C1374   1.501       .  S
C1371      C1376   1.409       .  A
C1371      C1672   1.398       .  A
C1372      H1680   1.110       .  S
C1372      H1389   1.110       .  S
C1372      H1390   1.111       .  S
C1374      H1385   1.071       .  S
C1374      H1386   1.110       .  S
C1374      H1387   1.111       .  S
C1376      C1381   1.505       .  S
C1376      C1377   1.404       .  A
C1377      C1670   1.408       .  A
C1377      H1382   1.084       .  S
C1378      C1669   1.409   1_554  A
C1378      C1379   1.424       .  A
C1379      C1383   1.508       .  S
C1379      C1380   1.405   1_554  A
C1380      C1663   1.398       .  A
C1380      H1384   1.084       .  S
C1381      H1391   1.111       .  S
C1381      H1392   1.110       .  S
C1381      H1393   1.108       .  S
C1383      H1394   1.110       .  S
C1383      H1395   1.111       .  S
C1383      H1396   1.111       .  S
H1388      C1664   1.110   1_554  S
C1397      C1398   1.402       .  A
C1397      C1402   1.409       .  A
C1397      H1407   1.084       .  S
C1398      C1403   1.490       .  S
C1398      C1691   1.413       .  A
C1399      C1404   1.506       .  S
C1399      C1690   1.413       .  A
C1399      C1400   1.405   1_556  A
C1400      C1401   1.404       .  A
C1400      H1405   1.084       .  S
C1401      C1694   1.420   1_554  A
C1402      C1406   1.508       .  S
C1402      C1693   1.419       .  A
C1403      C1408   1.402       .  A
C1403      C1412   1.392       .  A
C1404      H1420   1.110       .  S
C1404      H1713   1.110       .  S
C1404      H1422   1.111   1_556  S
C1406      H1417   1.111       .  S
C1406      H1418   1.110       .  S
C1406      H1711   1.107       .  S
C1408      C1413   1.506       .  S
C1408      C1409   1.406       .  A
C1409      C1410   1.417       .  A
C1409      H1414   1.069       .  S
C1410      C1411   1.447       .  A
C1411      C1415   1.508       .  S
C1411      C1412   1.409       .  A
C1412      H1416   1.086       .  S
C1413      H1423   1.111       .  S
C1413      H1424   1.110       .  S
C1413      H1425   1.110       .  S
C1415      H1426   1.106       .  S
C1415      H1427   1.093       .  S
C1415      H1428   1.112       .  S
H1419      C1698   1.107       .  S
H1421      C1696   1.110       .  S
C1429      C1430   1.401       .  A
C1429      C2018   1.408       .  A
C1429      H1439   1.084       .  S
C1430      C1435   1.490       .  S
C1430      C1723   1.411       .  A
C1431      C1436   1.503       .  S
C1431      C1722   1.411       .  A
C1431      C1432   1.409   1_556  A
C1432      C2017   1.408       .  A
C1432      H1437   1.084       .  S
C1433      C2016   1.408       .  A
C1433      C1726   1.422   1_554  A
C1434      C1438   1.507       .  S
C1434      C2013   1.408       .  A
C1434      C1725   1.422       .  A
C1435      C1440   1.401       .  A
C1435      C1444   1.382       .  A
C1436      H1744   1.109       .  S
C1436      H1453   1.110       .  S
C1436      H1454   1.111       .  S
C1438      H1449   1.111       .  S
C1438      H1450   1.109       .  S
C1438      H1743   1.108       .  S
C1440      C1445   1.504       .  S
C1440      C1441   1.414       .  A
C1441      C1442   1.423       .  A
C1441      H1446   1.069       .  S
C1442      C1443   1.446       .  A
C1443      C1447   1.489       .  S
C1443      C1444   1.403       .  A
C1444      H1448   1.086       .  S
C1445      H1455   1.111       .  S
C1445      H1456   1.110       .  S
C1445      H1457   1.110       .  S
C1447      H1458   1.111       .  S
C1447      H1459   1.096       .  S
C1447      H1460   1.079       .  S
H1451      C1730   1.108       .  S
H1452      C1728   1.109       .  S
C1461      C1462   1.591       .  S
C1461      C1463   1.599       .  S
C1461      C1465   1.587       .  S
C1461      C1734   1.604       .  S
C1462      C1464   1.583       .  S
C1462      C1466   1.601       .  S
C1462      C1702   1.578       .  S
C1463      C1464   1.588       .  S
C1463      C1467   1.572       .  S
C1463      C1661   1.575       .  S
C1464      C1468   1.564       .  S
C1464      C1629   1.562       .  S
C1465      C1466   1.574       .  S
C1465      C1467   1.585       .  S
C1465      C1597   1.586       .  S
C1466      C1468   1.576       .  S
C1466      C1565   1.575       .  S
C1467      C1468   1.594       .  S
C1467      C1542   1.562       .  S
C1468      C1510   1.589       .  S
O1469      C1479   1.283       .  A
O1470      C1480   1.281       .  A
O1470     Ni1477   1.922       .  S
O1471      C1481   1.283       .  A
O1471     Ni1477   1.921       .  S
O1472      C1482   1.282       .  A
O1473      C1482   1.283       .  A
O1474      C1481   1.280       .  A
O1474     Ni1478   1.915   1_655  S
O1475      C1480   1.281       .  A
O1475     Ni1478   1.919   1_655  S
O1476      C1479   1.282       .  A
Ni1477    Ni1478   2.383   1_655  S
C1479      C1693   1.485       .  S
C1480      C1533   1.479       .  S
C1481      C1670   1.492       .  S
C1482      C1574   1.501       .  S
O1483      C1493   1.285       .  A
O1483     Ni1491   1.931       .  S
O1484      C1494   1.283       .  A
O1484     Ni1491   1.929       .  S
O1485      C1495   1.284       .  A
O1485     Ni1491   1.930       .  S
O1486      C1496   1.282       .  A
O1486     Ni1491   1.925       .  S
O1487      C1496   1.283       .  A
O1487     Ni1492   1.930       .  S
O1488      C1495   1.283       .  A
O1488     Ni1492   1.926       .  S
O1489      C1494   1.281       .  A
O1489     Ni1492   1.921       .  S
O1490      C1493   1.282       .  A
O1490     Ni1492   1.927       .  S
Ni1491    Ni1492   2.384       .  S
C1493      C1606   1.501       .  S
C1494      C1638   1.480       .  S
C1495      C1725   1.498       .  S
C1496      C1501   1.486       .  S
C1497      C1498   1.404       .  A
C1497      C1502   1.405       .  A
C1497      H1507   1.084       .  S
C1498      C1503   1.501       .  S
C1498      C1499   1.418       .  A
C1499      C1504   1.508       .  S
C1499      C1500   1.411       .  A
C1500      C1501   1.405       .  A
C1500      H1505   1.084       .  S
C1501      C1502   1.416       .  A
C1502      C1506   1.505       .  S
C1503      C1508   1.407       .  A
C1503      C1512   1.398       .  A
C1504      H1520   1.107       .  S
C1504      H1521   1.111       .  S
C1504      H1522   1.111       .  S
C1506      H1517   1.110       .  S
C1506      H1518   1.107       .  S
C1506      H1519   1.107       .  S
C1508      C1513   1.509       .  S
C1508      C1509   1.408       .  A
C1509      C1510   1.416       .  A
C1509      H1514   1.062       .  S
C1510      C1511   1.432       .  A
C1511      C1515   1.487       .  S
C1511      C1512   1.409       .  A
C1512      H1516   1.084       .  S
C1513      H1523   1.109       .  S
C1513      H1524   1.107       .  S
C1513      H1525   1.110       .  S
C1515      H1526   1.110       .  S
C1515      H1527   1.083       .  S
C1515      H1528   1.111       .  S
C1529      C1530   1.401       .  A
C1529      C1534   1.405       .  A
C1529      H1539   1.084       .  S
C1530      C1535   1.483       .  S
C1530      C1531   1.412       .  A
C1531      C1536   1.506       .  S
C1531      C1532   1.405       .  A
C1532      C1533   1.403       .  A
C1532      H1537   1.084       .  S
C1533      C1534   1.416       .  A
C1534      C1538   1.508       .  S
C1535      C1540   1.402       .  A
C1535      C1544   1.391       .  A
C1536      H1552   1.110       .  S
C1536      H1553   1.110       .  S
C1536      H1554   1.111       .  S
C1538      H1549   1.111       .  S
C1538      H1550   1.109       .  S
C1538      H1551   1.110       .  S
C1540      C1545   1.507       .  S
C1540      C1541   1.403       .  A
C1541      C1542   1.414       .  A
C1541      H1546   1.066       .  S
C1542      C1543   1.438       .  A
C1543      C1547   1.496       .  S
C1543      C1544   1.405       .  A
C1544      H1548   1.085       .  S
C1545      H1555   1.111       .  S
C1545      H1556   1.110       .  S
C1545      H1557   1.110       .  S
C1547      H1558   1.111       .  S
C1547      H1559   1.110       .  S
C1547      H1560   1.085       .  S
C1561      C1562   1.391       .  A
C1561      C1566   1.404       .  A
C1561      H1571   1.086       .  S
C1562      C1567   1.488       .  S
C1562      C1563   1.405       .  A
C1563      C1568   1.506       .  S
C1563      C1564   1.408       .  A
C1564      C1565   1.414       .  A
C1564      H1569   1.072       .  S
C1565      C1566   1.435       .  A
C1566      C1570   1.493       .  S
C1567      C1572   1.410       .  A
C1567      C1576   1.400       .  A
C1568      H1584   1.110       .  S
C1568      H1585   1.109       .  S
C1568      H1586   1.111       .  S
C1570      H1581   1.111       .  S
C1570      H1582   1.109       .  S
C1570      H1583   1.082       .  S
C1572      C1577   1.506       .  S
C1572      C1573   1.403       .  A
C1573      C1574   1.409       .  A
C1573      H1578   1.083       .  S
C1574      C1575   1.425       .  A
C1575      C1579   1.507       .  S
C1575      C1576   1.411       .  A
C1576      H1580   1.084       .  S
C1577      H1587   1.111       .  S
C1577      H1588   1.110       .  S
C1577      H1589   1.109       .  S
C1579      H1590   1.110       .  S
C1579      H1591   1.110       .  S
C1579      H1592   1.111       .  S
C1593      C1594   1.400       .  A
C1593      C1598   1.417       .  A
C1593      H1603   1.084       .  S
C1594      C1599   1.493       .  S
C1594      C1595   1.400       .  A
C1595      C1600   1.513       .  S
C1595      C1596   1.399       .  A
C1596      C1597   1.417       .  A
C1596      H1601   1.056       .  S
C1597      C1598   1.435       .  A
C1598      C1602   1.496       .  S
C1599      C1604   1.412       .  A
C1599      C1608   1.401       .  A
C1600      H1616   1.110       .  S
C1600      H1617   1.108       .  S
C1600      H1618   1.111       .  S
C1602      H1613   1.111       .  S
C1602      H1614   1.110       .  S
C1602      H1615   1.086       .  S
C1604      C1609   1.509       .  S
C1604      C2189   1.409       .  A
C1605      C2188   1.409       .  A
C1605      C1606   1.409       .  A
C1605      H1610   1.084       .  S
C1606      C2191   1.423       .  A
C1607      C1611   1.507       .  S
C1607      C2190   1.423       .  A
C1607      C1608   1.410       .  A
C1608      H1612   1.084       .  S
C1609      H1619   1.111       .  S
C1609      H1620   1.110       .  S
C1609      H1621   1.108       .  S
C1611      H1622   1.110       .  S
C1611      H2207   1.110       .  S
C1611      H1624   1.111       .  S
H1623      C2195   1.110       .  S
C1625      C1626   1.402       .  A
C1625      C1630   1.411       .  A
C1625      H1635   1.083       .  S
C1626      C1631   1.495       .  S
C1626      C1627   1.407       .  A
C1627      C1632   1.511       .  S
C1627      C1628   1.401       .  A
C1628      C1629   1.413       .  A
C1628      H1633   1.066       .  S
C1629      C1630   1.429       .  A
C1630      C1634   1.501       .  S
C1631      C1636   1.415       .  A
C1632      H1648   1.107       .  S
C1632      H1649   1.110       .  S
C1632      H1650   1.111       .  S
C1634      H1645   1.110       .  S
C1634      H1646   1.110       .  S
C1634      H1647   1.094       .  S
C1636      C1641   1.507       .  S
C1636      C1637   1.409       .  A
C1637      H1642   1.082       .  S
C1638      C1639   1.412       .  A
C1639      C1643   1.505       .  S
C1639      C1640   1.403       .  A
C1640      H1644   1.084       .  S
C1641      H1651   1.111       .  S
C1641      H1652   1.107       .  S
C1641      H1653   1.110       .  S
C1643      H1654   1.108       .  S
C1643      H1655   1.108       .  S
C1643      H1656   1.110       .  S
C1657      C1658   1.388       .  A
C1657      C1662   1.403       .  A
C1657      H1667   1.086       .  S
C1658      C1663   1.482       .  S
C1658      C1659   1.401       .  A
C1659      C1664   1.506       .  S
C1659      C1660   1.405       .  A
C1660      C1661   1.410       .  A
C1660      H1665   1.061       .  S
C1661      C1662   1.445       .  A
C1662      C1666   1.501       .  S
C1663      C1668   1.409       .  A
C1664      H1681   1.110       .  S
C1664      H1682   1.111       .  S
C1666      H1677   1.071       .  S
C1666      H1678   1.110       .  S
C1666      H1679   1.111       .  S
C1668      C1673   1.505       .  S
C1668      C1669   1.405       .  A
C1669      H1674   1.084       .  S
C1670      C1671   1.424       .  A
C1671      C1675   1.508       .  S
C1671      C1672   1.405       .  A
C1672      H1676   1.084       .  S
C1673      H1683   1.111       .  S
C1673      H1684   1.110       .  S
C1673      H1685   1.107       .  S
C1675      H1686   1.110       .  S
C1675      H1687   1.111       .  S
C1675      H1688   1.111       .  S
C1689      C1690   1.402       .  A
C1689      C1694   1.409       .  A
C1689      H1699   1.084       .  S
C1690      C1695   1.490       .  S
C1691      C1696   1.506       .  S
C1691      C1692   1.405       .  A
C1692      C1693   1.403       .  A
C1692      H1697   1.084       .  S
C1694      C1698   1.508       .  S
C1695      C1700   1.402       .  A
C1695      C1704   1.392       .  A
C1696      H1712   1.110       .  S
C1696      H1714   1.111       .  S
C1698      H1709   1.111       .  S
C1698      H1710   1.110       .  S
C1700      C1705   1.506       .  S
C1700      C1701   1.407       .  A
C1701      C1702   1.417       .  A
C1701      H1706   1.069       .  S
C1702      C1703   1.447       .  A
C1703      C1707   1.509       .  S
C1703      C1704   1.409       .  A
C1704      H1708   1.086       .  S
C1705      H1715   1.111       .  S
C1705      H1716   1.110       .  S
C1705      H1717   1.110       .  S
C1707      H1718   1.105       .  S
C1707      H1719   1.093       .  S
C1707      H1720   1.112       .  S
C1721      C1722   1.401       .  A
C1721      C2310   1.408       .  A
C1721      H1731   1.084       .  S
C1722      C1727   1.491       .  S
C1723      C1728   1.504       .  S
C1723      C1724   1.408       .  A
C1724      C2309   1.408       .  A
C1724      H1729   1.084       .  S
C1725      C2308   1.408       .  A
C1726      C1730   1.507       .  S
C1726      C2305   1.408       .  A
C1727      C1732   1.401       .  A
C1727      C1736   1.382       .  A
C1728      H1745   1.110       .  S
C1728      H1746   1.111       .  S
C1730      H1741   1.111       .  S
C1730      H1742   1.109       .  S
C1732      C1737   1.504       .  S
C1732      C1733   1.414       .  A
C1733      C1734   1.423       .  A
C1733      H1738   1.069       .  S
C1734      C1735   1.446       .  A
C1735      C1739   1.489       .  S
C1735      C1736   1.404       .  A
C1736      H1740   1.086       .  S
C1737      H1747   1.111       .  S
C1737      H1748   1.110       .  S
C1737      H1749   1.110       .  S
C1739      H1750   1.111       .  S
C1739      H1751   1.097       .  S
C1739      H1752   1.079       .  S
C1753      C1754   1.591       .  S
C1753      C1755   1.599       .  S
C1753      C1757   1.586       .  S
C1753      C2026   1.603       .  S
C1754      C1756   1.583       .  S
C1754      C1758   1.601       .  S
C1754      C1994   1.577       .  S
C1755      C1756   1.588       .  S
C1755      C1759   1.572       .  S
C1755      C1953   1.575       .  S
C1756      C1760   1.564       .  S
C1756      C1921   1.562       .  S
C1757      C1758   1.574       .  S
C1757      C1759   1.585       .  S
C1757      C1889   1.587       .  S
C1758      C1760   1.576       .  S
C1758      C1857   1.575       .  S
C1759      C1760   1.593       .  S
C1759      C1834   1.562       .  S
C1760      C1802   1.589       .  S
O1761      C1771   1.283       .  A
O1762      C1772   1.282       .  A
O1762     Ni1769   1.922       .  S
O1763      C1773   1.283       .  A
O1763     Ni1769   1.922       .  S
O1764      C1774   1.282       .  A
O1765      C1774   1.283       .  A
O1766      C1773   1.280       .  A
O1766     Ni1770   1.915   1_655  S
O1767      C1772   1.281       .  A
O1767     Ni1770   1.919   1_655  S
O1768      C1771   1.282       .  A
Ni1769    Ni1770   2.383   1_655  S
C1771      C1985   1.486       .  S
C1772      C1825   1.479       .  S
C1773      C1962   1.493       .  S
C1774      C1866   1.501       .  S
O1775      C1785   1.285       .  A
O1775     Ni1783   1.932       .  S
O1776      C1786   1.283       .  A
O1776     Ni1783   1.930       .  S
O1777      C1787   1.283       .  A
O1777     Ni1783   1.929       .  S
O1778      C1788   1.282       .  A
O1778     Ni1783   1.925       .  S
O1779      C1788   1.283       .  A
O1779     Ni1784   1.931       .  S
O1780      C1787   1.283       .  A
O1780     Ni1784   1.927       .  S
O1781      C1786   1.281       .  A
O1781     Ni1784   1.920       .  S
O1782      C1785   1.282       .  A
O1782     Ni1784   1.928       .  S
Ni1783    Ni1784   2.384       .  S
C1785      C1898   1.502   1_565  S
C1786      C1930   1.481       .  S
C1787      C2017   1.498   1_565  S
C1788      C1793   1.486       .  S
C1789      C1790   1.404       .  A
C1789      C1794   1.405       .  A
C1789      H1799   1.084       .  S
C1790      C1795   1.501       .  S
C1790      C1791   1.418       .  A
C1791      C1796   1.508       .  S
C1791      C1792   1.411       .  A
C1792      C1793   1.405       .  A
C1792      H1797   1.084       .  S
C1793      C1794   1.416       .  A
C1794      C1798   1.505       .  S
C1795      C1800   1.407       .  A
C1795      C1804   1.398       .  A
C1796      H1812   1.107       .  S
C1796      H1813   1.111       .  S
C1796      H1814   1.111       .  S
C1798      H1809   1.110       .  S
C1798      H1810   1.107       .  S
C1798      H1811   1.107       .  S
C1800      C1805   1.509       .  S
C1800      C1801   1.408       .  A
C1801      C1802   1.416       .  A
C1801      H1806   1.061       .  S
C1802      C1803   1.432       .  A
C1803      C1807   1.488       .  S
C1803      C1804   1.409       .  A
C1804      H1808   1.084       .  S
C1805      H1815   1.109       .  S
C1805      H1816   1.107       .  S
C1805      H1817   1.110       .  S
C1807      H1818   1.110       .  S
C1807      H1819   1.083       .  S
C1807      H1820   1.111       .  S
C1821      C1822   1.401       .  A
C1821      C1826   1.406       .  A
C1821      H1831   1.084       .  S
C1822      C1827   1.483       .  S
C1822      C1823   1.411       .  A
C1823      C1828   1.506       .  S
C1823      C1824   1.405       .  A
C1824      C1825   1.403       .  A
C1824      H1829   1.084       .  S
C1825      C1826   1.417       .  A
C1826      C1830   1.508       .  S
C1827      C1832   1.402       .  A
C1827      C1836   1.391       .  A
C1828      H1844   1.110       .  S
C1828      H1845   1.110       .  S
C1828      H1846   1.111       .  S
C1830      H1841   1.111       .  S
C1830      H1842   1.109       .  S
C1830      H1843   1.110       .  S
C1832      C1837   1.507       .  S
C1832      C1833   1.403       .  A
C1833      C1834   1.414       .  A
C1833      H1838   1.066       .  S
C1834      C1835   1.438       .  A
C1835      C1839   1.496       .  S
C1835      C1836   1.405       .  A
C1836      H1840   1.085       .  S
C1837      H1847   1.111       .  S
C1837      H1848   1.110       .  S
C1837      H1849   1.110       .  S
C1839      H1850   1.111       .  S
C1839      H1851   1.110       .  S
C1839      H1852   1.085       .  S
C1853      C1854   1.391       .  A
C1853      C1858   1.404       .  A
C1853      H1863   1.085       .  S
C1854      C1859   1.488       .  S
C1854      C1855   1.405       .  A
C1855      C1860   1.506       .  S
C1855      C1856   1.408       .  A
C1856      C1857   1.414       .  A
C1856      H1861   1.072       .  S
C1857      C1858   1.435       .  A
C1858      C1862   1.493       .  S
C1859      C1864   1.410       .  A
C1859      C1868   1.400       .  A
C1860      H1876   1.110       .  S
C1860      H1877   1.109       .  S
C1860      H1878   1.111       .  S
C1862      H1873   1.111       .  S
C1862      H1874   1.109       .  S
C1862      H1875   1.083       .  S
C1864      C1869   1.506       .  S
C1864      C1865   1.403       .  A
C1865      C1866   1.409       .  A
C1865      H1870   1.083       .  S
C1866      C1867   1.425       .  A
C1867      C1871   1.507       .  S
C1867      C1868   1.411       .  A
C1868      H1872   1.084       .  S
C1869      H1879   1.111       .  S
C1869      H1880   1.110       .  S
C1869      H1881   1.108       .  S
C1871      H1882   1.110       .  S
C1871      H1883   1.110       .  S
C1871      H1884   1.111       .  S
C1885      C1886   1.400       .  A
C1885      C1890   1.417       .  A
C1885      H1895   1.084       .  S
C1886      C1891   1.494       .  S
C1886      C1887   1.400       .  A
C1887      C1892   1.513       .  S
C1887      C1888   1.399       .  A
C1888      C1889   1.416       .  A
C1888      H1893   1.056       .  S
C1889      C1890   1.436       .  A
C1890      C1894   1.496       .  S
C1891      C1896   1.413       .  A
C1891      C1900   1.402       .  A
C1892      H1908   1.110       .  S
C1892      H1909   1.107       .  S
C1892      H1910   1.111       .  S
C1894      H1905   1.111       .  S
C1894      H1906   1.110       .  S
C1894      H1907   1.086       .  S
C1896      C1901   1.509       .  S
C1897      C1898   1.409       .  A
C1897      H1902   1.084   1_545  S
C1899      C1903   1.507       .  S
C1899      C1900   1.411       .  A
C1900      H1904   1.084       .  S
C1901      H1911   1.111       .  S
C1901      H1912   1.110       .  S
C1901      H1913   1.108       .  S
C1903      H1914   1.110       .  S
C1903      H1916   1.111       .  S
C1917      C1918   1.402       .  A
C1917      C1922   1.411       .  A
C1917      H1927   1.083       .  S
C1918      C1923   1.495       .  S
C1918      C1919   1.407       .  A
C1919      C1924   1.511       .  S
C1919      C1920   1.401       .  A
C1920      C1921   1.413       .  A
C1920      H1925   1.065       .  S
C1921      C1922   1.429       .  A
C1922      C1926   1.501       .  S
C1923      C1928   1.414       .  A
C1923      C2224   1.406       .  A
C1924      H1940   1.107       .  S
C1924      H1941   1.110       .  S
C1924      H1942   1.111       .  S
C1926      H1937   1.110       .  S
C1926      H1938   1.110       .  S
C1926      H1939   1.094       .  S
C1928      C1933   1.507       .  S
C1928      C1929   1.408       .  A
C1929      C2222   1.405       .  A
C1929      H1934   1.082       .  S
C1930      C2221   1.405   1_554  A
C1930      C1931   1.412       .  A
C1931      C1935   1.505       .  S
C1931      C1932   1.403   1_554  A
C1932      C2215   1.406       .  A
C1932      H1936   1.084       .  S
C1933      H1943   1.111       .  S
C1933      H1944   1.107       .  S
C1933      H1945   1.110       .  S
C1935      H1946   1.108       .  S
C1935      H1947   1.108       .  S
C1935      H1948   1.110       .  S
C1949      C1950   1.388       .  A
C1949      C1954   1.403       .  A
C1949      H1959   1.086       .  S
C1950      C1955   1.482       .  S
C1950      C1951   1.401       .  A
C1951      C1956   1.506       .  S
C1951      C1952   1.405       .  A
C1952      C1953   1.410       .  A
C1952      H1957   1.062       .  S
C1953      C1954   1.445       .  A
C1954      C1958   1.501       .  S
C1955      C1960   1.409       .  A
C1955      C2256   1.398       .  A
C1956      H2264   1.110       .  S
C1956      H1973   1.110       .  S
C1956      H1974   1.111       .  S
C1958      H1969   1.071       .  S
C1958      H1970   1.110       .  S
C1958      H1971   1.111       .  S
C1960      C1965   1.505       .  S
C1960      C1961   1.404       .  A
C1961      C2254   1.408       .  A
C1961      H1966   1.084       .  S
C1962      C2253   1.409   1_554  A
C1962      C1963   1.424       .  A
C1963      C1967   1.508       .  S
C1963      C1964   1.405   1_554  A
C1964      C2247   1.398       .  A
C1964      H1968   1.084       .  S
C1965      H1975   1.111       .  S
C1965      H1976   1.110       .  S
C1965      H1977   1.108       .  S
C1967      H1978   1.110       .  S
C1967      H1979   1.111       .  S
C1967      H1980   1.111       .  S
H1972      C2248   1.110   1_554  S
C1981      C1982   1.402       .  A
C1981      C1986   1.409       .  A
C1981      H1991   1.084       .  S
C1982      C1987   1.490       .  S
C1982      C2275   1.413       .  A
C1983      C1988   1.506       .  S
C1983      C2274   1.413       .  A
C1983      C1984   1.405   1_556  A
C1984      C1985   1.404       .  A
C1984      H1989   1.084       .  S
C1985      C2278   1.420   1_554  A
C1986      C1990   1.508       .  S
C1986      C2277   1.419       .  A
C1987      C1992   1.402       .  A
C1987      C1996   1.392       .  A
C1988      H2004   1.110       .  S
C1988      H2297   1.110       .  S
C1988      H2006   1.111   1_556  S
C1990      H2001   1.111       .  S
C1990      H2002   1.110       .  S
C1990      H2295   1.107       .  S
C1992      C1997   1.506       .  S
C1992      C1993   1.406       .  A
C1993      C1994   1.417       .  A
C1993      H1998   1.069       .  S
C1994      C1995   1.447       .  A
C1995      C1999   1.508       .  S
C1995      C1996   1.409       .  A
C1996      H2000   1.086       .  S
C1997      H2007   1.111       .  S
C1997      H2008   1.110       .  S
C1997      H2009   1.110       .  S
C1999      H2010   1.106       .  S
C1999      H2011   1.093       .  S
C1999      H2012   1.112       .  S
H2003      C2282   1.107       .  S
H2005      C2280   1.110       .  S
C2013      C2014   1.401       .  A
C2013      H2023   1.084       .  S
C2014      C2019   1.490       .  S
C2014      C2307   1.411       .  A
C2015      C2020   1.503       .  S
C2015      C2306   1.411       .  A
C2015      C2016   1.409   1_556  A
C2016      H2021   1.084       .  S
C2017      C2310   1.422   1_554  A
C2018      C2022   1.507   1_545  S
C2018      C2309   1.422       .  A
C2019      C2024   1.401       .  A
C2019      C2028   1.382       .  A
C2020      H2328   1.109       .  S
C2020      H2037   1.110       .  S
C2020      H2038   1.111       .  S
C2022      H2033   1.111       .  S
C2022      H2034   1.109       .  S
C2022      H2327   1.108       .  S
C2024      C2029   1.504       .  S
C2024      C2025   1.414       .  A
C2025      C2026   1.423       .  A
C2025      H2030   1.069       .  S
C2026      C2027   1.446       .  A
C2027      C2031   1.489       .  S
C2027      C2028   1.403       .  A
C2028      H2032   1.086       .  S
C2029      H2039   1.111       .  S
C2029      H2040   1.110       .  S
C2029      H2041   1.110       .  S
C2031      H2042   1.111       .  S
C2031      H2043   1.096       .  S
C2031      H2044   1.079       .  S
H2035      C2314   1.108       .  S
H2036      C2312   1.109       .  S
C2045      C2046   1.591       .  S
C2045      C2047   1.599       .  S
C2045      C2049   1.587       .  S
C2045      C2318   1.604       .  S
C2046      C2048   1.583       .  S
C2046      C2050   1.601       .  S
C2046      C2286   1.578       .  S
C2047      C2048   1.588       .  S
C2047      C2051   1.572       .  S
C2047      C2245   1.575       .  S
C2048      C2052   1.564       .  S
C2048      C2213   1.562       .  S
C2049      C2050   1.574       .  S
C2049      C2051   1.585       .  S
C2049      C2181   1.586       .  S
C2050      C2052   1.576       .  S
C2050      C2149   1.575       .  S
C2051      C2052   1.594       .  S
C2051      C2126   1.562       .  S
C2052      C2094   1.589       .  S
O2053      C2063   1.283       .  A
O2054      C2064   1.281       .  A
O2054     Ni2061   1.922       .  S
O2055      C2065   1.283       .  A
O2055     Ni2061   1.921       .  S
O2056      C2066   1.282       .  A
O2057      C2066   1.283       .  A
O2058      C2065   1.280       .  A
O2058     Ni2062   1.915   1_655  S
O2059      C2064   1.281       .  A
O2059     Ni2062   1.919   1_655  S
O2060      C2063   1.282       .  A
Ni2061    Ni2062   2.383   1_655  S
C2063      C2277   1.485       .  S
C2064      C2117   1.479       .  S
C2065      C2254   1.492       .  S
C2066      C2158   1.501       .  S
O2067      C2077   1.285       .  A
O2067     Ni2075   1.931       .  S
O2068      C2078   1.283       .  A
O2068     Ni2075   1.929       .  S
O2069      C2079   1.284       .  A
O2069     Ni2075   1.930       .  S
O2070      C2080   1.282       .  A
O2070     Ni2075   1.925       .  S
O2071      C2080   1.283       .  A
O2071     Ni2076   1.930       .  S
O2072      C2079   1.283       .  A
O2072     Ni2076   1.926       .  S
O2073      C2078   1.281       .  A
O2073     Ni2076   1.921       .  S
O2074      C2077   1.282       .  A
O2074     Ni2076   1.927       .  S
Ni2075    Ni2076   2.384       .  S
C2077      C2190   1.501   1_565  S
C2078      C2222   1.480       .  S
C2079      C2309   1.498   1_565  S
C2080      C2085   1.486       .  S
C2081      C2082   1.404       .  A
C2081      C2086   1.405       .  A
C2081      H2091   1.084       .  S
C2082      C2087   1.501       .  S
C2082      C2083   1.418       .  A
C2083      C2088   1.508       .  S
C2083      C2084   1.411       .  A
C2084      C2085   1.405       .  A
C2084      H2089   1.084       .  S
C2085      C2086   1.416       .  A
C2086      C2090   1.505       .  S
C2087      C2092   1.407       .  A
C2087      C2096   1.398       .  A
C2088      H2104   1.107       .  S
C2088      H2105   1.111       .  S
C2088      H2106   1.111       .  S
C2090      H2101   1.110       .  S
C2090      H2102   1.107       .  S
C2090      H2103   1.107       .  S
C2092      C2097   1.509       .  S
C2092      C2093   1.408       .  A
C2093      C2094   1.416       .  A
C2093      H2098   1.062       .  S
C2094      C2095   1.432       .  A
C2095      C2099   1.487       .  S
C2095      C2096   1.409       .  A
C2096      H2100   1.084       .  S
C2097      H2107   1.109       .  S
C2097      H2108   1.107       .  S
C2097      H2109   1.110       .  S
C2099      H2110   1.110       .  S
C2099      H2111   1.083       .  S
C2099      H2112   1.111       .  S
C2113      C2114   1.401       .  A
C2113      C2118   1.405       .  A
C2113      H2123   1.084       .  S
C2114      C2119   1.483       .  S
C2114      C2115   1.412       .  A
C2115      C2120   1.506       .  S
C2115      C2116   1.405       .  A
C2116      C2117   1.403       .  A
C2116      H2121   1.084       .  S
C2117      C2118   1.416       .  A
C2118      C2122   1.508       .  S
C2119      C2124   1.402       .  A
C2119      C2128   1.391       .  A
C2120      H2136   1.110       .  S
C2120      H2137   1.110       .  S
C2120      H2138   1.111       .  S
C2122      H2133   1.111       .  S
C2122      H2134   1.109       .  S
C2122      H2135   1.110       .  S
C2124      C2129   1.507       .  S
C2124      C2125   1.403       .  A
C2125      C2126   1.414       .  A
C2125      H2130   1.066       .  S
C2126      C2127   1.438       .  A
C2127      C2131   1.496       .  S
C2127      C2128   1.405       .  A
C2128      H2132   1.085       .  S
C2129      H2139   1.111       .  S
C2129      H2140   1.110       .  S
C2129      H2141   1.110       .  S
C2131      H2142   1.111       .  S
C2131      H2143   1.110       .  S
C2131      H2144   1.085       .  S
C2145      C2146   1.391       .  A
C2145      C2150   1.404       .  A
C2145      H2155   1.086       .  S
C2146      C2151   1.488       .  S
C2146      C2147   1.405       .  A
C2147      C2152   1.506       .  S
C2147      C2148   1.408       .  A
C2148      C2149   1.414       .  A
C2148      H2153   1.072       .  S
C2149      C2150   1.435       .  A
C2150      C2154   1.493       .  S
C2151      C2156   1.410       .  A
C2151      C2160   1.400       .  A
C2152      H2168   1.110       .  S
C2152      H2169   1.109       .  S
C2152      H2170   1.111       .  S
C2154      H2165   1.111       .  S
C2154      H2166   1.109       .  S
C2154      H2167   1.082       .  S
C2156      C2161   1.506       .  S
C2156      C2157   1.403       .  A
C2157      C2158   1.409       .  A
C2157      H2162   1.083       .  S
C2158      C2159   1.425       .  A
C2159      C2163   1.507       .  S
C2159      C2160   1.411       .  A
C2160      H2164   1.084       .  S
C2161      H2171   1.111       .  S
C2161      H2172   1.110       .  S
C2161      H2173   1.109       .  S
C2163      H2174   1.110       .  S
C2163      H2175   1.110       .  S
C2163      H2176   1.111       .  S
C2177      C2178   1.400       .  A
C2177      C2182   1.417       .  A
C2177      H2187   1.084       .  S
C2178      C2183   1.493       .  S
C2178      C2179   1.400       .  A
C2179      C2184   1.513       .  S
C2179      C2180   1.399       .  A
C2180      C2181   1.417       .  A
C2180      H2185   1.056       .  S
C2181      C2182   1.435       .  A
C2182      C2186   1.496       .  S
C2183      C2188   1.412       .  A
C2183      C2192   1.401       .  A
C2184      H2200   1.110       .  S
C2184      H2201   1.108       .  S
C2184      H2202   1.111       .  S
C2186      H2197   1.111       .  S
C2186      H2198   1.110       .  S
C2186      H2199   1.086       .  S
C2188      C2193   1.509       .  S
C2189      C2190   1.409       .  A
C2189      H2194   1.084   1_545  S
C2191      C2195   1.507       .  S
C2191      C2192   1.410       .  A
C2192      H2196   1.084       .  S
C2193      H2203   1.111       .  S
C2193      H2204   1.110       .  S
C2193      H2205   1.108       .  S
C2195      H2206   1.110       .  S
C2195      H2208   1.111       .  S
C2209      C2210   1.402       .  A
C2209      C2214   1.411       .  A
C2209      H2219   1.083       .  S
C2210      C2215   1.495       .  S
C2210      C2211   1.407       .  A
C2211      C2216   1.511       .  S
C2211      C2212   1.401       .  A
C2212      C2213   1.413       .  A
C2212      H2217   1.066       .  S
C2213      C2214   1.429       .  A
C2214      C2218   1.501       .  S
C2215      C2220   1.415       .  A
C2216      H2232   1.107       .  S
C2216      H2233   1.110       .  S
C2216      H2234   1.111       .  S
C2218      H2229   1.110       .  S
C2218      H2230   1.110       .  S
C2218      H2231   1.094       .  S
C2220      C2225   1.507       .  S
C2220      C2221   1.409       .  A
C2221      H2226   1.082       .  S
C2222      C2223   1.412       .  A
C2223      C2227   1.505       .  S
C2223      C2224   1.403       .  A
C2224      H2228   1.084       .  S
C2225      H2235   1.111       .  S
C2225      H2236   1.107       .  S
C2225      H2237   1.110       .  S
C2227      H2238   1.108       .  S
C2227      H2239   1.108       .  S
C2227      H2240   1.110       .  S
C2241      C2242   1.388       .  A
C2241      C2246   1.403       .  A
C2241      H2251   1.086       .  S
C2242      C2247   1.482       .  S
C2242      C2243   1.401       .  A
C2243      C2248   1.506       .  S
C2243      C2244   1.405       .  A
C2244      C2245   1.410       .  A
C2244      H2249   1.061       .  S
C2245      C2246   1.445       .  A
C2246      C2250   1.501       .  S
C2247      C2252   1.409       .  A
C2248      H2265   1.110       .  S
C2248      H2266   1.111       .  S
C2250      H2261   1.071       .  S
C2250      H2262   1.110       .  S
C2250      H2263   1.111       .  S
C2252      C2257   1.505       .  S
C2252      C2253   1.405       .  A
C2253      H2258   1.084       .  S
C2254      C2255   1.424       .  A
C2255      C2259   1.508       .  S
C2255      C2256   1.405       .  A
C2256      H2260   1.084       .  S
C2257      H2267   1.111       .  S
C2257      H2268   1.110       .  S
C2257      H2269   1.107       .  S
C2259      H2270   1.110       .  S
C2259      H2271   1.111       .  S
C2259      H2272   1.111       .  S
C2273      C2274   1.402       .  A
C2273      C2278   1.409       .  A
C2273      H2283   1.084       .  S
C2274      C2279   1.490       .  S
C2275      C2280   1.506       .  S
C2275      C2276   1.405       .  A
C2276      C2277   1.403       .  A
C2276      H2281   1.084       .  S
C2278      C2282   1.508       .  S
C2279      C2284   1.402       .  A
C2279      C2288   1.392       .  A
C2280      H2296   1.110       .  S
C2280      H2298   1.111       .  S
C2282      H2293   1.111       .  S
C2282      H2294   1.110       .  S
C2284      C2289   1.506       .  S
C2284      C2285   1.407       .  A
C2285      C2286   1.417       .  A
C2285      H2290   1.069       .  S
C2286      C2287   1.447       .  A
C2287      C2291   1.509       .  S
C2287      C2288   1.409       .  A
C2288      H2292   1.086       .  S
C2289      H2299   1.111       .  S
C2289      H2300   1.110       .  S
C2289      H2301   1.110       .  S
C2291      H2302   1.105       .  S
C2291      H2303   1.093       .  S
C2291      H2304   1.112       .  S
C2305      C2306   1.401       .  A
C2305      H2315   1.084       .  S
C2306      C2311   1.491       .  S
C2307      C2312   1.504       .  S
C2307      C2308   1.408       .  A
C2308      H2313   1.084       .  S
C2310      C2314   1.507   1_545  S
C2311      C2316   1.401       .  A
C2311      C2320   1.382       .  A
C2312      H2329   1.110       .  S
C2312      H2330   1.111       .  S
C2314      H2325   1.111       .  S
C2314      H2326   1.109       .  S
C2316      C2321   1.504       .  S
C2316      C2317   1.414       .  A
C2317      C2318   1.423       .  A
C2317      H2322   1.069       .  S
C2318      C2319   1.446       .  A
C2319      C2323   1.489       .  S
C2319      C2320   1.404       .  A
C2320      H2324   1.086       .  S
C2321      H2331   1.111       .  S
C2321      H2332   1.110       .  S
C2321      H2333   1.110       .  S
C2323      H2334   1.111       .  S
C2323      H2335   1.097       .  S
C2323      H2336   1.079       .  S
