geometry optimzed in LAMMPS
_audit_creation_date              2020-11-30 
_audit_creation_method            'lammps2cif' 
_symmetry_space_group_name_H-M    'P1' 
_symmetry_Int_Tables_number       1 
_symmetry_cell_setting            triclinic 
loop_ 
_symmetry_equiv_pos_as_xyz 
  x,y,z 
_cell_length_a                    46.99045953 
_cell_length_b                    44.666831957274056 
_cell_length_c                    114.68693664940658 
_cell_angle_alpha                 89.32363004443742 
_cell_angle_beta                  89.52454344892246 
_cell_angle_gamma                 118.50931105876765 
loop_ 
_atom_site_label 
_atom_site_type_symbol 
_atom_site_fract_x 
_atom_site_fract_y 
_atom_site_fract_z 
_atom_site_charge 
C1          C  0.26372890  0.00364123  0.10154300     0.79800
N2          N  0.26627096  0.97489791  0.10332479    -0.78500
C3          C  0.28507432  0.97312005  0.11193439     0.82200
N4          N  0.30160074  0.00055970  0.11876574    -0.78500
C5          C  0.29946861  0.02956085  0.11710038     0.82300
N6          N  0.28041936  0.03090588  0.10846856    -0.80200
C7          C  0.47338417  0.30020983  0.20179343     0.79800
N8          N  0.47657085  0.33148389  0.19915686    -0.78500
C9          C  0.46629579  0.33745743  0.18874240     0.82200
N10         N  0.45261016  0.31173106  0.18100062    -0.78500
C11         C  0.44917676  0.28039195  0.18354064     0.82300
N12         N  0.45970876  0.27496312  0.19392655    -0.80200
C13         C  0.04732712  0.31248572  0.10440870     0.79800
N14         N  0.04955303  0.29630382  0.09477328    -0.78500
C15         C  0.02625169  0.26418514  0.09241147     0.82200
N16         N  0.00050621  0.24817119  0.09986816    -0.78500
C17         C  0.99795643  0.26403415  0.10956267     0.82300
N18         N  0.02151917  0.29611421  0.11177094    -0.80200
C19         C  0.72687406  0.04531553  0.18852098     0.79800
N20         N  0.75202828  0.06348474  0.18102516    -0.78500
C21         C  0.77358773  0.09649599  0.18313473     0.82200
N22         N  0.76975698  0.11134075  0.19286085    -0.78500
C23         C  0.74470034  0.09357531  0.20042901     0.82300
N24         N  0.72333879  0.06059991  0.19818175    -0.80200
C25         C  0.00747698  0.57567393  0.18528167     0.79800
N26         N  0.99042690  0.58522496  0.17801512    -0.78500
C27         C  0.95821500  0.57368169  0.17978872     0.82200
N28         N  0.94301624  0.55223702  0.18897281    -0.78500
C29         C  0.95968235  0.54245658  0.19635862     0.82300
N30         N  0.99192603  0.55433062  0.19445394    -0.80200
C31         C  0.77230931  0.68821577  0.10409238     0.79800
N32         N  0.78993934  0.70607266  0.09455531    -0.78500
C33         C  0.82016161  0.71019733  0.09248533     0.82200
N34         N  0.83272278  0.69625133  0.10010376    -0.78500
C35         C  0.81556767  0.67837367  0.10969547     0.82300
N36         N  0.78538093  0.67453073  0.11164008    -0.80200
Zr37       Zr  0.34747472  0.66209846  0.13517941     2.17500
O38         O  0.32376172  0.66066609  0.11622180    -0.51800
O39         O  0.30236075  0.65589685  0.14736600    -0.75000
O40         O  0.30500315  0.60521094  0.13124196    -0.81800
O41         O  0.39248387  0.75855907  0.13482742    -0.83500
O42         O  0.32047858  0.56785663  0.13856682    -0.79100
O43         O  0.34472191  0.71321858  0.12994348    -0.90800
O44         O  0.31681426  0.65767804  0.16628278    -0.76700
O45         O  0.34605893  0.62784890  0.15140424    -0.86200
O46         O  0.37242482  0.69990206  0.15080725    -0.85900
O47         O  0.37651975  0.63319940  0.12861426    -0.72700
O48         O  0.40124211  0.70020040  0.12812879    -0.84800
Zr49       Zr  0.45540435  0.67551970  0.15453339     2.26400
Zr50       Zr  0.37583363  0.60000464  0.14524093     2.06300
Zr51       Zr  0.42611932  0.73736827  0.14402015     2.10000
Zr52       Zr  0.37162711  0.66561133  0.16690999     1.78800
O53         O  0.46004514  0.77996366  0.12949088    -0.93600
O54         O  0.33971070  0.61457946  0.17882075    -0.41400
O55         O  0.42592469  0.70429488  0.16065077    -0.78100
O56         O  0.40130895  0.63678181  0.16131320    -0.96700
O57         O  0.43011237  0.63756001  0.13893057    -0.90000
O58         O  0.45640381  0.70955760  0.13822747    -0.92900
C59         C  0.29654666  0.65481618  0.15836960     1.00900
C60         C  0.36378511  0.74535452  0.13064552     1.13800
C61         C  0.29996145  0.57490847  0.13357275     1.04600
O62         O  0.34590698  0.55445674  0.15947582    -0.95000
O63         O  0.41071398  0.57878400  0.15287330    -0.90800
O64         O  0.45679724  0.62304387  0.15958743    -0.83900
C65         C  0.43829344  0.59112457  0.15784979     1.11200
O66         O  0.41097562  0.67060827  0.10316922    -0.97000
Zr67       Zr  0.43146011  0.67155277  0.12271073     1.88900
O68         O  0.49994457  0.67925137  0.14257632    -0.73700
O69         O  0.37468351  0.56063681  0.13050935    -0.52900
O70         O  0.42699511  0.62211316  0.11240449    -0.97600
O71         O  0.46665678  0.72173473  0.11090061    -0.54800
O72         O  0.48500750  0.67571204  0.12365877    -0.74200
C73         C  0.50511317  0.67823382  0.13160823     0.98200
O74         O  0.47888437  0.67771834  0.17362666    -0.63000
O75         O  0.42515798  0.77920939  0.15722189    -0.57800
O76         O  0.49696442  0.73345275  0.15907426    -0.94500
O77         O  0.47792918  0.76928016  0.15320681    -0.92900
O78         O  0.37594976  0.71328788  0.17828511    -0.93300
O79         O  0.39307412  0.66890001  0.18637369    -0.92100
C80         C  0.49949452  0.76335120  0.15788034     1.17000
H81         H  0.36107654  0.71243827  0.15274222     0.32900
H82         H  0.40217668  0.62363185  0.16792573     0.43800
H83         H  0.47832887  0.72610074  0.13611440     0.37300
H84         H  0.36530436  0.61845274  0.12222869     0.33800
H85         H  0.32565120  0.62030027  0.18375764     0.25600
H86         H  0.39771222  0.56877853  0.12839831     0.31500
H87         H  0.44630982  0.63112672  0.10718475     0.37400
H88         H  0.36032882  0.71961180  0.17478677     0.31900
H89         H  0.43606088  0.80108825  0.15280237     0.30800
H90         H  0.46861640  0.80194853  0.13355530     0.32500
H91         H  0.48750184  0.73284739  0.11503576     0.31400
H92         H  0.41644755  0.67676882  0.18505661     0.35400
H93         H  0.47870653  0.69717764  0.17760522     0.28200
H94         H  0.30012451  0.65023506  0.11771323     0.32400
H95         H  0.42702702  0.66962700  0.09775493     0.35200
H96         H  0.40216748  0.77386483  0.15773317     0.27800
H97         H  0.46239501  0.65752450  0.17799432     0.40700
H98         H  0.35738677  0.56284437  0.16690742     0.30800
H99         H  0.32468916  0.59759847  0.17331261     0.38400
H100        H  0.45742373  0.73738513  0.11186064     0.30200
H101        H  0.36806514  0.53895423  0.13484581     0.30300
H102        H  0.32667705  0.64348733  0.11173691     0.30600
Zr103      Zr  0.72107125  0.33573513  0.33840762     2.17500
O104        O  0.72217847  0.30839761  0.35683460    -0.51800
O105        O  0.71711266  0.38078467  0.34893216    -0.75000
O106        O  0.77475115  0.35913120  0.34676964    -0.81800
O107        O  0.63019557  0.27432979  0.33599110    -0.83500
O108        O  0.81257992  0.37820761  0.33220612    -0.79100
O109        O  0.67172537  0.29689589  0.34872198    -0.90800
O110        O  0.71421404  0.41750455  0.33579411    -0.76700
O111        O  0.75306135  0.38525286  0.32679415    -0.86200
O112        O  0.68335538  0.34747260  0.32826104    -0.85900
O113        O  0.75310946  0.31993334  0.32598656    -0.72700
O114        O  0.68905387  0.28595884  0.32720976    -0.84800
Zr115      Zr  0.71515824  0.33215578  0.29244293     2.26400
Zr116      Zr  0.78405044  0.36966283  0.31390807     2.06300
Zr117      Zr  0.65197463  0.29847404  0.31676133     2.10000
Zr118      Zr  0.71546865  0.39652370  0.31643260     1.78800
O119        O  0.60978863  0.23960246  0.31499672    -0.93600
O120        O  0.76237240  0.45317932  0.31631534    -0.41400
O121        O  0.68318796  0.34786058  0.30478808    -0.78100
O122        O  0.74737539  0.38254353  0.30333532    -0.96700
O123        O  0.75260905  0.32034273  0.30260992    -0.90000
O124        O  0.68322989  0.28291645  0.30416824    -0.92900
C125        C  0.71479507  0.40757375  0.34629609     1.00900
C126        C  0.64191416  0.27745288  0.34627098     1.13800
C127        C  0.80416670  0.37243406  0.34302699     1.04600
O128        O  0.81883583  0.43114924  0.31403804    -0.95000
O129        O  0.80684386  0.38333556  0.29414811    -0.90800
O130        O  0.76547742  0.35837000  0.28145354    -0.83900
C131        C  0.79558918  0.37624097  0.28377303     1.11200
O132        O  0.72057160  0.23558699  0.33063513    -0.97000
Zr133      Zr  0.72075368  0.27134427  0.31436589     1.88900
O134        O  0.71354048  0.28492104  0.28171530    -0.73700
O135        O  0.82932790  0.35793126  0.31145526    -0.52900
O136        O  0.76992497  0.26579073  0.31397940    -0.97600
O137        O  0.67528435  0.21364363  0.31417125    -0.54800
O138        O  0.72171344  0.25143025  0.29480527    -0.74200
C139        C  0.71750470  0.25918668  0.28438042     0.98200
O140        O  0.71261217  0.36594502  0.27598474    -0.63000
O141        O  0.61330837  0.31906368  0.32055601    -0.57800
O142        O  0.66268221  0.30823317  0.28355368    -0.94500
O143        O  0.62477065  0.29097308  0.29810161    -0.92900
O144        O  0.66767371  0.40452526  0.31666557    -0.93300
O145        O  0.71260100  0.43181390  0.30060468    -0.92100
C146        C  0.63334030  0.29574977  0.28725841     1.17000
H147        H  0.66938987  0.35127155  0.33356124     0.32900
H148        H  0.75935528  0.40158985  0.29805106     0.43800
H149        H  0.66919160  0.26384395  0.29948868     0.37300
H150        H  0.76720529  0.31454199  0.33057986     0.33800
H151        H  0.75351336  0.46862988  0.31834957     0.25600
H152        H  0.84836254  0.37811214  0.31453922     0.31500
H153        H  0.76527366  0.24684346  0.30861517     0.37400
H154        H  0.67445690  0.42630045  0.32071789     0.31900
H155        H  0.61611371  0.33450845  0.31387041     0.30800
H156        H  0.58923413  0.24069620  0.31515037     0.32500
H157        H  0.67038872  0.20812251  0.30584881     0.31400
H158        H  0.72204369  0.42634346  0.29373427     0.35400
H159        H  0.69623096  0.37274694  0.27835988     0.28200
H160        H  0.73192335  0.32689299  0.36256700     0.32400
H161        H  0.72477079  0.21787044  0.32714204     0.35200
H162        H  0.59183377  0.29902598  0.31939207     0.27800
H163        H  0.73325363  0.38758055  0.27599366     0.40700
H164        H  0.81853082  0.43903048  0.30595774     0.30800
H165        H  0.77486298  0.45330248  0.32324163     0.38400
H166        H  0.65666314  0.21596802  0.31720443     0.30200
H167        H  0.82500332  0.33928585  0.31711916     0.30300
H168        H  0.73821000  0.30020454  0.35570752     0.30600
C169        C  0.63292241  0.91887047  0.51346237     0.79800
N170        N  0.61660340  0.89924545  0.52287981    -0.78500
C171        C  0.58694269  0.89493865  0.52599631     0.82200
N172        N  0.57360653  0.91066209  0.51958594    -0.78500
C173        C  0.58945386  0.93034714  0.51011071     0.82300
N174        N  0.61917387  0.93436574  0.50708996    -0.80200
C175        C  0.42686723  0.09760237  0.44747347     0.79800
N176        N  0.44341527  0.11436391  0.43761388    -0.78500
C177        C  0.47199008  0.11550205  0.43464615     0.82200
N178        N  0.48394110  0.09960119  0.44166078    -0.78500
C179        C  0.46780827  0.08267015  0.45152730     0.82300
N180        N  0.43922731  0.08174249  0.45438060    -0.80200
C181        C  0.37574201  0.46867956  0.52564869     0.79800
N182        N  0.40138360  0.48240178  0.51808262    -0.78500
C183        C  0.40314109  0.46415284  0.50897320     0.82200
N184        N  0.37902142  0.43181288  0.50751705    -0.78500
C185        C  0.35320937  0.41770108  0.51498625     0.82300
N186        N  0.35170892  0.43635518  0.52401671    -0.80200
C187        C  0.68474727  0.57603430  0.42943820     0.79800
N188        N  0.71048252  0.60612337  0.43231116    -0.78500
C189        C  0.70853932  0.62424309  0.44141380     0.82200
N190        N  0.68043706  0.61202569  0.44766359    -0.78500
C191        C  0.65448456  0.58191028  0.44493146     0.82300
N192        N  0.65683584  0.56403566  0.43580830    -0.80200
C193        C  0.06610624  0.63531464  0.54522765     0.79800
N194        N  0.06003219  0.61234303  0.53669162    -0.78500
C195        C  0.04473843  0.61322558  0.52683508     0.82200
N196        N  0.03532536  0.63741586  0.52556313    -0.78500
C197        C  0.04104019  0.66060439  0.53400571     0.82300
N198        N  0.05672399  0.65962659  0.54381801    -0.80200
C199        C  0.99637399  0.40240864  0.42361318     0.79800
N200        N  0.00641314  0.37854152  0.42455080    -0.78500
C201        C  0.02168288  0.37631219  0.43428017     0.82200
N202        N  0.02661594  0.39805077  0.44315422    -0.78500
C203        C  0.01651017  0.42184183  0.44239181     0.82300
N204        N  0.00141321  0.42383875  0.43259693    -0.80200
Zr205      Zr  0.98360215  0.96233550  0.49027345     2.17500
O206        O  0.95811041  0.93891350  0.50919920    -0.51800
O207        O  0.94806723  0.91459428  0.47844413    -0.75000
O208        O  0.93218057  0.96301763  0.49272238    -0.81800
O209        O  0.04780117  0.93424067  0.49350479    -0.83500
O210        O  0.93891733  0.01344168  0.48538160    -0.79100
O211        O  0.99568289  0.91915137  0.49846359    -0.90800
O212        O  0.96181464  0.92919961  0.45939999    -0.76700
O213        O  0.97680373  0.98880186  0.47317671    -0.86200
O214        O  0.01687247  0.95741728  0.47544007    -0.85900
O215        O  0.00021055  0.02011107  0.49565360    -0.72700
O216        O  0.03787252  0.99140007  0.49745732    -0.84800
Zr217      Zr  0.08150611  0.07113240  0.47006149     2.26400
Zr218      Zr  0.99421490  0.04653273  0.47827849     2.06300
Zr219      Zr  0.07090808  0.98701143  0.48231739     2.10000
Zr220      Zr  0.01028203  0.98416357  0.45844354     1.78800
O221        O  0.10908430  0.98653360  0.49644301    -0.93600
O222        O  0.97328450  0.99074942  0.44519893    -0.41400
O223        O  0.06518680  0.01332221  0.46489845    -0.78100
O224        O  0.02704567  0.04228864  0.46296523    -0.96700
O225        O  0.04850975  0.07628227  0.48493645    -0.90000
O226        O  0.08829188  0.04483964  0.48720731    -0.92900
C227        C  0.94401027  0.90848827  0.46750002     1.00900
C228        C  0.02051629  0.91422323  0.49845729     1.13800
C229        C  0.92166182  0.98414906  0.49027942     1.04600
O230        O  0.95690102  0.04931792  0.46426955    -0.95000
O231        O  0.01797624  0.10071022  0.46786097    -0.90800
O232        O  0.07014294  0.11584989  0.46291859    -0.83900
C233        C  0.04545621  0.12101578  0.46307852     1.11200
O234        O  0.03193211  0.02961645  0.52138462    -0.97000
Zr235      Zr  0.05529336  0.04984998  0.50197025     1.88900
O236        O  0.11716814  0.11937597  0.48165993    -0.73700
O237        O  0.98626267  0.08322961  0.49201797    -0.52900
O238        O  0.03946659  0.08824242  0.51147595    -0.97600
O239        O  0.09367493  0.04384336  0.51469958    -0.54800
O240        O  0.10223721  0.10644347  0.50071973    -0.74200
C241        C  0.12040364  0.12661413  0.49253741     0.98200
O242        O  0.10477523  0.09187789  0.45064386    -0.63000
O243        O  0.07652068  0.94750855  0.46921876    -0.57800
O244        O  0.13294873  0.07041119  0.46748493    -0.94500
O245        O  0.12574025  0.01963257  0.47473242    -0.92900
O246        O  0.02431011  0.94450388  0.44883937    -0.93300
O247        O  0.03618351  0.00565651  0.43945044    -0.92100
C248        C  0.14321190  0.04900563  0.46990524     1.17000
H249        H  0.01091212  0.93388610  0.47401601     0.32900
H250        H  0.02538733  0.05358979  0.45597429     0.43800
H251        H  0.11061015  0.05584220  0.48959427     0.37300
H252        H  0.98611837  0.02040392  0.50177488     0.33800
H253        H  0.96598822  0.97119930  0.43989338     0.25600
H254        H  0.97162356  0.09001940  0.48798266     0.31500
H255        H  0.04328392  0.10602471  0.50551074     0.37400
H256        H  0.00612535  0.93149489  0.44353710     0.31900
H257        H  0.08676453  0.96109846  0.46204205     0.30800
H258        H  0.12024443  0.97548680  0.49241327     0.32500
H259        H  0.11512162  0.05725174  0.51084660     0.31400
H260        H  0.05932725  0.01249813  0.44064360     0.35400
H261        H  0.11055250  0.07472782  0.44766428     0.28200
H262        H  0.93582605  0.92103362  0.50750208     0.32400
H263        H  0.04684817  0.04696261  0.52682259     0.35200
H264        H  0.09353152  0.94337147  0.47273368     0.27800
H265        H  0.08623124  0.08875261  0.44580293     0.40700
H266        H  0.96447720  0.04551535  0.45662748     0.30800
H267        H  0.95392717  0.98560114  0.45006349     0.38400
H268        H  0.08880709  0.01982029  0.51390401     0.30200
H269        H  0.97286982  0.06794205  0.49847205     0.30300
H270        H  0.95542449  0.95730560  0.51293701     0.30600
C271        C  0.61631073  0.71271062  0.75510048     0.79800
N272        N  0.61261226  0.68126833  0.75771461    -0.78500
C273        C  0.62415645  0.67545962  0.76782373     0.82200
N274        N  0.63978599  0.70149420  0.77528732    -0.78500
C275        C  0.64393194  0.73310484  0.77278507     0.82300
N276        N  0.63192740  0.73848000  0.76269447    -0.80200
C277        C  0.81445765  0.00486211  0.85886752     0.79800
N278        N  0.81101757  0.03297833  0.85679118    -0.78500
C279        C  0.79337003  0.03431451  0.84768149     0.82200
N280        N  0.77914961  0.00714508  0.84054910    -0.78500
C281        C  0.78241098  0.97883135  0.84242389     0.82300
N282        N  0.80002989  0.97783278  0.85164678    -0.80200
C283        C  0.34674639  0.96731342  0.77674490     0.79800
N284        N  0.32120450  0.94976817  0.78413743    -0.78500
C285        C  0.30145392  0.91581938  0.78287765     0.82200
N286        N  0.30751984  0.89935196  0.77411227    -0.78500
C287        C  0.33301289  0.91652281  0.76665158     0.82300
N288        N  0.35249823  0.95046606  0.76804009    -0.80200
C289        C  0.01893528  0.70176770  0.85812395     0.79800
N290        N  0.04492215  0.71931743  0.85091074    -0.78500
C291        C  0.06621186  0.75247875  0.85289437     0.82200
N292        N  0.06106924  0.76814841  0.86212261    -0.78500
C293        C  0.03513902  0.75098893  0.86938489     0.82300
N294        N  0.01422250  0.71777114  0.86734802    -0.80200
C295        C  0.30558744  0.31671647  0.86086681     0.79800
N296        N  0.29178642  0.32979011  0.85341406    -0.78500
C297        C  0.26224805  0.32703730  0.85583511     0.82200
N298        N  0.24642513  0.31085436  0.86584768    -0.78500
C299        C  0.25978501  0.29762714  0.87342114     0.82300
N300        N  0.28938750  0.30064365  0.87085624    -0.80200
C301        C  0.07016281  0.42948389  0.77992196     0.79800
N302        N  0.08714616  0.42074756  0.78753221    -0.78500
C303        C  0.11952924  0.43257645  0.78593149     0.82200
N304        N  0.13485727  0.45358766  0.77664971    -0.78500
C305        C  0.11824000  0.46267867  0.76899760     0.82300
N306        N  0.08589772  0.45036390  0.77068147    -0.80200
Zr307      Zr  0.62245189  0.33571318  0.80751662     2.17500
O308        O  0.59482916  0.33549108  0.78958652    -0.51800
O309        O  0.57924896  0.33301589  0.82003060    -0.75000
O310        O  0.58055642  0.27840720  0.80267968    -0.81800
O311        O  0.67224791  0.43209149  0.80601105    -0.83500
O312        O  0.59593848  0.24070682  0.80976751    -0.79100
O313        O  0.62395800  0.38830430  0.80071109    -0.90800
O314        O  0.59337239  0.33308310  0.83890708    -0.76700
O315        O  0.62082816  0.30086765  0.82366713    -0.86200
O316        O  0.64880243  0.37341527  0.82311393    -0.85900
O317        O  0.65039485  0.30576164  0.80078738    -0.72700
O318        O  0.67649677  0.37317834  0.80048509    -0.84800
Zr319      Zr  0.72968778  0.34625149  0.82607740     2.26400
Zr320      Zr  0.64998288  0.27215755  0.81736149     2.06300
Zr321      Zr  0.70290883  0.40998669  0.81639076     2.10000
Zr322      Zr  0.64745527  0.33859889  0.83914178     1.78800
O323        O  0.73914220  0.45520154  0.80301688    -0.93600
O324        O  0.61552502  0.28868367  0.85152723    -0.41400
O325        O  0.70207946  0.37628146  0.83284416    -0.78100
O326        O  0.67608212  0.30862656  0.83335124    -0.96700
O327        O  0.70379652  0.30884421  0.81050703    -0.90000
O328        O  0.73117251  0.38092187  0.80995274    -0.92900
C329        C  0.57366753  0.33214847  0.83104256     1.00900
C330        C  0.64450035  0.42017709  0.80119880     1.13800
C331        C  0.57578485  0.24793495  0.80463610     1.04600
O332        O  0.61990046  0.23035137  0.83266291    -0.95000
O333        O  0.68441377  0.24941673  0.82457519    -0.90800
O334        O  0.73223315  0.29406599  0.82979683    -0.83900
C335        C  0.71325397  0.26206505  0.82857656     1.11200
O336        O  0.68282241  0.34273634  0.77524204    -0.97000
Zr337      Zr  0.70499472  0.34336880  0.79444805     1.88900
O338        O  0.77447066  0.35332045  0.81372773    -0.73700
O339        O  0.64885913  0.22990359  0.80384999    -0.52900
O340        O  0.69858301  0.29330356  0.78405534    -0.97600
O341        O  0.73871248  0.39271144  0.78202215    -0.54800
O342        O  0.75913936  0.34887719  0.79483499    -0.74200
C343        C  0.77982646  0.35299633  0.80275953     0.98200
O344        O  0.75369651  0.34757853  0.84497093    -0.63000
O345        O  0.69966246  0.44998822  0.82991629    -0.57800
O346        O  0.77276749  0.40232924  0.83051231    -0.94500
O347        O  0.75604495  0.44038545  0.82503207    -0.92900
O348        O  0.65130378  0.38654978  0.85020541    -0.93300
O349        O  0.67094724  0.34297933  0.85831076    -0.92100
C350        C  0.77693978  0.43276211  0.82937261     1.17000
H351        H  0.63812033  0.38661066  0.82508623     0.32900
H352        H  0.67711067  0.29538735  0.83989442     0.43800
H353        H  0.75310926  0.39719763  0.80772329     0.37300
H354        H  0.63887540  0.29119137  0.79441146     0.33800
H355        H  0.60269156  0.29552588  0.85668151     0.25600
H356        H  0.63149182  0.20780138  0.80689314     0.31500
H357        H  0.70302316  0.27964286  0.78990368     0.37400
H358        H  0.67234304  0.40596612  0.84776359     0.31900
H359        H  0.71639268  0.47272257  0.82709278     0.30800
H360        H  0.74016221  0.47625860  0.80614009     0.32500
H361        H  0.75953922  0.40499016  0.78611184     0.31400
H362        H  0.69372324  0.34871980  0.85667727     0.35400
H363        H  0.75111909  0.36500406  0.84942960     0.28200
H364        H  0.57137055  0.32288595  0.79150389     0.32400
H365        H  0.69638997  0.33805946  0.76967802     0.35200
H366        H  0.67883723  0.44959217  0.82826920     0.27800
H367        H  0.73862653  0.32581129  0.84893209     0.40700
H368        H  0.60756647  0.20863427  0.82852993     0.30800
H369        H  0.59940587  0.27181475  0.84625912     0.38400
H370        H  0.72871837  0.40776553  0.78267994     0.30200
H371        H  0.64024046  0.23405041  0.79651203     0.30300
H372        H  0.59876399  0.32057987  0.78423217     0.30600
Zr373      Zr  0.04165319  0.00724059  0.95943588     2.17500
O374        O  0.07968045  0.01378889  0.94372929    -0.51800
O375        O  0.99928877  0.00378141  0.94671386    -0.75000
O376        O  0.02725451  0.95416845  0.94972796    -0.81800
O377        O  0.08457252  0.10331073  0.96425543    -0.83500
O378        O  0.00937710  0.91098414  0.96315835    -0.79100
O379        O  0.07317314  0.06332714  0.95042470    -0.90800
O380        O  0.95632949  0.99701336  0.95779895    -0.76700
O381        O  0.99269673  0.96596531  0.96860572    -0.86200
O382        O  0.01912028  0.03865239  0.96871229    -0.85900
O383        O  0.05747440  0.97550273  0.97248664    -0.72700
O384        O  0.08191287  0.04304481  0.97289296    -0.84800
Zr385      Zr  0.02482086  0.00141473  0.00512194     2.26400
Zr386      Zr  0.00804860  0.93497192  0.98202063     2.06300
Zr387      Zr  0.05860151  0.07370041  0.98244054     2.10000
Zr388      Zr  0.97062083  0.99741710  0.97811065     1.78800
O389        O  0.11172418  0.12057244  0.98685041    -0.93600
O390        O  0.91941530  0.94524864  0.97620400    -0.41400
O391        O  0.00942293  0.03316098  0.99197415    -0.78100
O392        O  0.98443465  0.96532450  0.99166496    -0.96700
O393        O  0.04730745  0.97009485  0.99577979    -0.90000
O394        O  0.07368535  0.04266843  0.99590010    -0.92900
C395        C  0.97054882  0.99991279  0.94792233     1.00900
C396        C  0.08662980  0.09438166  0.95379560     1.13800
C397        C  0.01674597  0.92280850  0.95265368     1.04600
O398        O  0.95442976  0.88756469  0.97861248    -0.95000
O399        O  0.98677189  0.90591495  0.00076615    -0.90800
O400        O  0.99978574  0.94589483  0.01472008    -0.83900
C401        C  0.98694809  0.91484881  0.01140771     1.11200
O402        O  0.13848697  0.01988049  0.97243836    -0.97000
Zr403      Zr  0.09586087  0.01118534  0.98648809     1.88900
O404        O  0.06708994  0.00581369  0.01815637    -0.73700
O405        O  0.03142306  0.89743505  0.98555769    -0.52900
O406        O  0.10820982  0.96404954  0.98722983    -0.97600
O407        O  0.14683124  0.06278781  0.98972122    -0.54800
O408        O  0.10804664  0.00834734  0.00683128    -0.74200
C409        C  0.09489680  0.00731071  0.01678424     0.98200
O410        O  0.98338202  0.99355204  0.01965537    -0.63000
O411        O  0.03530784  0.11114944  0.97841190    -0.57800
O412        O  0.03711404  0.05417606  0.01471415    -0.94500
O413        O  0.05440933  0.09682708  0.00107350    -0.92900
O414        O  0.95684045  0.04343761  0.97692633    -0.93300
O415        O  0.93007722  0.99233142  0.99251251    -0.92100
C416        C  0.04669334  0.08527582  0.01159333     1.17000
H417        H  0.01486752  0.05243278  0.96313928     0.32900
H418        H  0.96500897  0.94955331  0.99585689     0.43800
H419        H  0.08853685  0.05791421  0.00156529     0.37300
H420        H  0.06694667  0.96393764  0.96813678     0.33800
H421        H  0.90446472  0.95275986  0.97284660     0.25600
H422        H  0.01522565  0.87507426  0.98257651     0.31500
H423        H  0.09485505  0.94931984  0.99379569     0.37400
H424        H  0.93758620  0.03466502  0.97189659     0.31900
H425        H  0.05310633  0.13437367  0.97983356     0.30800
H426        H  0.11029874  0.14140318  0.98479459     0.32500
H427        H  0.14408701  0.07149383  0.99731256     0.31400
H428        H  0.93684362  0.98602606  0.99988366     0.35400
H429        H  0.97834600  0.01241157  0.01822642     0.28200
H430        H  0.06639486  0.00412911  0.93672236     0.32400
H431        H  0.15519465  0.01752343  0.97696354     0.35200
H432        H  0.03235107  0.11052426  0.96986443     0.27800
H433        H  0.96353176  0.97307603  0.01721785     0.40700
H434        H  0.93950547  0.89280481  0.98322530     0.30800
H435        H  0.92330554  0.93282809  0.96982717     0.38400
H436        H  0.14716362  0.07949732  0.98389739     0.30200
H437        H  0.04990529  0.90538693  0.97998570     0.30300
H438        H  0.08813830  0.99791778  0.94575220     0.30600
Zr439      Zr  0.35854252  0.68255816  0.67098989     2.17500
O440        O  0.35893540  0.64342951  0.68592081    -0.46100
O441        O  0.36386127  0.72819395  0.68365656    -0.75000
O442        O  0.41260192  0.70270401  0.67832636    -0.81800
O443        O  0.26682746  0.63238688  0.67097728    -0.83500
O444        O  0.44889125  0.72371098  0.66323655    -0.79100
O445        O  0.31027715  0.65183784  0.68288236    -0.90800
O446        O  0.36032166  0.76811941  0.67228100    -0.76700
O447        O  0.39132769  0.73350539  0.66017710    -0.86200
O448        O  0.32191594  0.69994086  0.66315801    -0.85900
O449        O  0.38649280  0.66685247  0.65671440    -0.72700
O450        O  0.32210293  0.63609226  0.65926956    -0.84800
Zr451      Zr  0.34665779  0.69103479  0.62569219     2.26400
Zr452      Zr  0.41849742  0.71821231  0.64559194     2.06300
Zr453      Zr  0.28618673  0.65433904  0.65113392     2.10000
Zr454      Zr  0.35468063  0.75053821  0.65218619     1.78800
O455        O  0.24261204  0.59603202  0.64966252    -0.93600
O456        O  0.40132048  0.80718953  0.65327341    -0.41400
O457        O  0.31823810  0.70558045  0.64005657    -0.78100
O458        O  0.38317317  0.73740621  0.63741427    -0.96700
O459        O  0.38255203  0.67297764  0.63361668    -0.90000
O460        O  0.31371986  0.63975659  0.63645716    -0.92900
C461        C  0.36351205  0.75657140  0.68218871     1.00900
C462        C  0.27974972  0.63517134  0.68105881     1.13800
C463        C  0.44150059  0.71617743  0.67407873     1.04600
O464        O  0.46149918  0.77708718  0.64569767    -0.95000
O465        O  0.43903464  0.73681595  0.62576888    -0.90800
O466        O  0.39576456  0.72055500  0.61392404    -0.83900
C467        C  0.42638289  0.73490102  0.61571757     1.11200
O468        O  0.34544124  0.58082076  0.65940588    -0.97000
Zr469      Zr  0.34988524  0.62217811  0.64444354     1.88900
O470        O  0.34765185  0.64915198  0.61274181    -0.73700
O471        O  0.45500481  0.69526659  0.64113584    -0.52900
O472        O  0.39629215  0.61200090  0.64275859    -0.97600
O473        O  0.30301102  0.56609335  0.64219878    -0.54800
O474        O  0.35151382  0.60910638  0.62399251    -0.74200
C475        C  0.35048099  0.62213314  0.61406150     0.98200
O476        O  0.34229148  0.73000683  0.61162388    -0.63000
O477        O  0.24952797  0.67734737  0.65529298    -0.57800
O478        O  0.29257530  0.66894993  0.61799692    -0.94500
O479        O  0.25667211  0.64956542  0.63324404    -0.92900
O480        O  0.30801922  0.75983711  0.65491421    -0.93300
O481        O  0.35221281  0.78924278  0.63757365    -0.92100
C482        C  0.26372486  0.65597750  0.62231574     1.17000
H483        H  0.30992793  0.70404144  0.66925096     0.32900
H484        H  0.39557633  0.75748531  0.63260446     0.43800
H485        H  0.29846191  0.62234002  0.63146495     0.37300
H486        H  0.40023494  0.65930181  0.66053294     0.33800
H487        H  0.39265760  0.82150128  0.65670578     0.25600
H488        H  0.47675496  0.71360476  0.64319103     0.31500
H489        H  0.38967994  0.59326517  0.63713619     0.37400
H490        H  0.30377736  0.75781579  0.66343292     0.31900
H491        H  0.22771160  0.65859897  0.65354452     0.30800
H492        H  0.22252726  0.59760618  0.65100011     0.32500
H493        H  0.29679736  0.56502768  0.63392824     0.31400
H494        H  0.36552247  0.78882240  0.63090891     0.35400
H495        H  0.32501494  0.73439166  0.61482701     0.28200
H496        H  0.36818380  0.65745499  0.69290462     0.32400
H497        H  0.34922874  0.56360279  0.65531963     0.35200
H498        H  0.24950737  0.67931792  0.66388036     0.27800
H499        H  0.36228906  0.75197798  0.61252122     0.40700
H500        H  0.45518873  0.78777900  0.65200611     0.30800
H501        H  0.41492367  0.80523900  0.65947047     0.38400
H502        H  0.28534940  0.56724750  0.64659461     0.30200
H503        H  0.44994248  0.67716040  0.64710297     0.30300
H504        H  0.37554336  0.63726575  0.68326825     0.30600
C505        C  0.03483415  0.41642922  0.78160564    -0.03800
C506        C  0.01973580  0.40305893  0.79248194    -0.09600
C507        C  0.98659645  0.39181553  0.79411103    -0.17200
C508        C  0.96804216  0.39349083  0.78488641     0.24900
C509        C  0.98271590  0.40620432  0.77398045    -0.18900
C510        C  0.01588714  0.41769227  0.77235200    -0.07800
C511        C  0.93431199  0.38349908  0.78679099    -0.14300
C512        C  0.90662172  0.37643874  0.78895991    -0.14000
C513        C  0.87444376  0.36955562  0.79233125     0.24800
C514        C  0.85050803  0.36176839  0.78395654    -0.19400
C515        C  0.81959493  0.35614055  0.78730895    -0.07900
C516        C  0.81225167  0.35819146  0.79910396    -0.03900
C517        C  0.83651892  0.36586860  0.80744321    -0.09300
C518        C  0.86732117  0.37150234  0.80406903    -0.16900
H519        H  0.03362581  0.40186893  0.79979027     0.11300
H520        H  0.97551488  0.38217844  0.80260922     0.10500
H521        H  0.96862054  0.40764835  0.76677653     0.10500
H522        H  0.02669509  0.42760506  0.76384550     0.11000
H523        H  0.85579313  0.36027872  0.77483525     0.11100
H524        H  0.80153811  0.35031942  0.78066779     0.11000
H525        H  0.83186354  0.36783565  0.81659067     0.11200
H526        H  0.88568414  0.37763307  0.81062154     0.10000
C527        C  0.25840813  0.61792303  0.69135181    -0.03800
C528        C  0.22448587  0.60008697  0.69035920    -0.09600
C529        C  0.20476343  0.58316688  0.70006949    -0.17200
C530        C  0.21863302  0.58381706  0.71089169     0.24900
C531        C  0.25228231  0.60184120  0.71200441    -0.18900
C532        C  0.27201461  0.61876834  0.70234397    -0.07800
C533        C  0.19867227  0.56489436  0.72076756    -0.14300
C534        C  0.18343708  0.54828458  0.72917780    -0.14000
C535        C  0.16698466  0.52765373  0.73932054     0.24800
C536        C  0.18470459  0.52117289  0.74779634    -0.19400
C537        C  0.16892761  0.50025675  0.75747663    -0.07900
C538        C  0.13508285  0.48546638  0.75883939    -0.03900
C539        C  0.11748852  0.49246683  0.75032787    -0.09300
C540        C  0.13334647  0.51335776  0.74063177    -0.16900
H541        H  0.21318493  0.59895416  0.68207030     0.11300
H542        H  0.17872941  0.56923054  0.69909902     0.10500
H543        H  0.26332970  0.60246035  0.72031890     0.10500
H544        H  0.29799464  0.63218576  0.70348746     0.11000
H545        H  0.21075294  0.53209221  0.74687589     0.11100
H546        H  0.18327021  0.49558856  0.76385921     0.11000
H547        H  0.09142521  0.48156004  0.75108375     0.11200
H548        H  0.11934646  0.51813701  0.73412364     0.10000
C549        C  0.33761223  0.31927160  0.85794744    -0.03800
C550        C  0.35294634  0.30722323  0.86578464    -0.09600
C551        C  0.38284190  0.30920758  0.86286950    -0.17200
C552        C  0.39786241  0.32321577  0.85209216     0.24900
C553        C  0.38284598  0.33532069  0.84426931    -0.18900
C554        C  0.35303897  0.33343328  0.84716301    -0.07800
C555        C  0.42850194  0.32499038  0.84897046    -0.14300
C556        C  0.45393764  0.32646499  0.84605278    -0.14000
C557        C  0.48405046  0.32798159  0.84230934     0.24800
C558        C  0.49447825  0.33585928  0.83066345    -0.19400
C559        C  0.52344057  0.33693829  0.82697510    -0.07900
C560        C  0.54259341  0.33034858  0.83491140    -0.03900
C561        C  0.53192448  0.32251865  0.84660857    -0.09300
C562        C  0.50285427  0.32127727  0.85025869    -0.16900
H563        H  0.34185233  0.29619082  0.87415957     0.11300
H564        H  0.39417887  0.29971693  0.86900760     0.10500
H565        H  0.39414613  0.34616055  0.83589504     0.10500
H566        H  0.34201048  0.34289573  0.84089431     0.11000
H567        H  0.48019476  0.34113763  0.82441921     0.11100
H568        H  0.53096229  0.34324836  0.81792788     0.11000
H569        H  0.54595776  0.31718751  0.85294029     0.11200
H570        H  0.49504172  0.31506444  0.85928751     0.10000
C571        C  0.24717905  0.34102639  0.84755543    -0.03800
C572        C  0.26380259  0.35871618  0.83732489    -0.09600
C573        C  0.24941375  0.37154134  0.82948254    -0.17200
C574        C  0.21820515  0.36687702  0.83171875     0.24900
C575        C  0.20153520  0.34945949  0.84188573    -0.18900
C576        C  0.21586360  0.33664500  0.84974567    -0.07800
C577        C  0.20307330  0.37959562  0.82356412    -0.14300
C578        C  0.18951268  0.38960093  0.81690024    -0.14000
C579        C  0.17217823  0.40077594  0.80917274     0.24800
C580        C  0.13905346  0.38924175  0.81102718    -0.19400
C581        C  0.12200377  0.39977433  0.80355179    -0.07900
C582        C  0.13782716  0.42205431  0.79405748    -0.03900
C583        C  0.17122433  0.43367101  0.79230278    -0.09300
C584        C  0.18822362  0.42308201  0.79979962    -0.16900
H585        H  0.28792281  0.36262608  0.83534946     0.11300
H586        H  0.26259858  0.38498451  0.82165257     0.10500
H587        H  0.17736888  0.34566010  0.84372382     0.10500
H588        H  0.20230256  0.32317260  0.85750704     0.11000
H589        H  0.12634188  0.37199306  0.81824985     0.11100
H590        H  0.09637979  0.39029216  0.80519241     0.11000
H591        H  0.18424962  0.45082003  0.78510281     0.11200
H592        H  0.21385780  0.43223103  0.79826231     0.10000
C593        C  0.24161380  0.27893552  0.88412388    -0.03800
C594        C  0.25392748  0.26257096  0.89150402    -0.09600
C595        C  0.23583692  0.24317731  0.90116243    -0.17200
C596        C  0.20525460  0.23992458  0.90362996     0.24900
C597        C  0.19314807  0.25683148  0.89653588    -0.18900
C598        C  0.21116620  0.27621489  0.88686365    -0.07800
C599        C  0.18560980  0.21776149  0.91303393    -0.14300
C600        C  0.16854722  0.19767345  0.92046866    -0.14000
C601        C  0.14751843  0.17209190  0.92882913     0.24800
C602        C  0.14370258  0.18109051  0.94016408    -0.19400
C603        C  0.12336773  0.15601132  0.94823832    -0.07900
C604        C  0.10660206  0.12148880  0.94508572    -0.03900
C605        C  0.11036973  0.11286984  0.93360838    -0.09300
C606        C  0.13069371  0.13794811  0.92557808    -0.16900
H607        H  0.27725409  0.26413444  0.88969598     0.11300
H608        H  0.24545008  0.23016801  0.90657550     0.10500
H609        H  0.16949747  0.25449802  0.89834460     0.10500
H610        H  0.20095551  0.28856428  0.88142914     0.11000
H611        H  0.15657221  0.20744974  0.94278272     0.11100
H612        H  0.12112941  0.16362873  0.95698029     0.11000
H613        H  0.09794010  0.08664636  0.93084347     0.11200
H614        H  0.13340673  0.13064761  0.91683112     0.10000
C615        C  0.80803109  0.46099630  0.83322010    -0.03800
C616        C  0.83378527  0.45500043  0.83642322    -0.09600
C617        C  0.86319925  0.48186011  0.83996821    -0.17200
C618        C  0.86712914  0.51489156  0.84037175     0.24900
C619        C  0.84176589  0.52111021  0.83716282    -0.18900
C620        C  0.81241668  0.49439149  0.83359725    -0.07800
C621        C  0.89697398  0.54268035  0.84413042    -0.14300
C622        C  0.92067378  0.56791462  0.84711629    -0.14000
C623        C  0.94709161  0.60004791  0.85031374     0.24800
C624        C  0.94674254  0.61366354  0.86119673    -0.19400
C625        C  0.97061364  0.64649923  0.86386396    -0.07900
C626        C  0.99512264  0.66610197  0.85565135    -0.03900
C627        C  0.99577514  0.65175836  0.84485782    -0.09300
C628        C  0.97179860  0.61895519  0.84220040    -0.16900
H629        H  0.83129187  0.42963166  0.83614461     0.11300
H630        H  0.88278780  0.47686947  0.84240840     0.10500
H631        H  0.84465557  0.54665473  0.83744555     0.10500
H632        H  0.79314408  0.49991081  0.83119119     0.11000
H633        H  0.92757443  0.59924060  0.86750656     0.11100
H634        H  0.96952735  0.65671638  0.87227236     0.11000
H635        H  0.01423973  0.66618967  0.83833154     0.11200
H636        H  0.97207514  0.60867799  0.83371406     0.10000
C637        C  0.02919747  0.76863479  0.87918373    -0.03800
C638        C  0.00570910  0.75007462  0.88784616    -0.09600
C639        C  0.00021776  0.76687387  0.89709597    -0.17200
C640        C  0.01800202  0.80236372  0.89776961     0.24900
C641        C  0.04108481  0.82106785  0.88911792    -0.18900
C642        C  0.04673589  0.80434785  0.87989910    -0.07800
C643        C  0.01344479  0.81966038  0.90750742    -0.14300
C644        C  0.01138898  0.83547883  0.91560611    -0.14000
C645        C  0.01093729  0.85631053  0.92498534     0.24800
C646        C  0.01231068  0.88765589  0.92244922    -0.19400
C647        C  0.01364344  0.90895802  0.93147041    -0.07900
C648        C  0.01352215  0.89915052  0.94319585    -0.03900
C649        C  0.01156928  0.86729194  0.94567852    -0.09300
C650        C  0.01042752  0.84606425  0.93660716    -0.16900
H651        H  0.99179308  0.72256967  0.88754763     0.11300
H652        H  0.98231862  0.75217690  0.90376531     0.10500
H653        H  0.05493663  0.84857370  0.88955430     0.10500
H654        H  0.06477465  0.81942558  0.87332672     0.11000
H655        H  0.01279388  0.89585387  0.91348444     0.11100
H656        H  0.01498130  0.93323750  0.92924753     0.11000
H657        H  0.01167081  0.85913551  0.95460061     0.11200
H658        H  0.00956911  0.82190007  0.93865068     0.10000
C659        C  0.54516269  0.21887720  0.80074245    -0.03800
C660        C  0.53496994  0.18610348  0.80553175    -0.09600
C661        C  0.50675991  0.15822955  0.80170673    -0.17200
C662        C  0.48831381  0.16250512  0.79299097     0.24900
C663        C  0.49802043  0.19503369  0.78821090    -0.18900
C664        C  0.52623211  0.22313559  0.79209967    -0.07800
C665        C  0.46011436  0.13304900  0.78882272    -0.14300
C666        C  0.43790860  0.10637034  0.78581781    -0.14000
C667        C  0.41342984  0.07265014  0.78280477     0.24800
C668        C  0.38483225  0.05591602  0.78946833    -0.19400
C669        C  0.36270748  0.02187308  0.78732452    -0.07900
C670        C  0.36894690  0.00406907  0.77848248    -0.03900
C671        C  0.39733036  0.02145406  0.77161434    -0.09300
C672        C  0.41940722  0.05545627  0.77378737    -0.16900
H673        H  0.54883473  0.18194053  0.81224937     0.11300
H674        H  0.49951296  0.13320831  0.80547295     0.10500
H675        H  0.48399003  0.19861739  0.78141887     0.10500
H676        H  0.53354513  0.24799934  0.78820063     0.11000
H677        H  0.38001728  0.06889904  0.79651444     0.11100
H678        H  0.34106896  0.00934864  0.79275182     0.11000
H679        H  0.40293556  0.00859721  0.76473943     0.11200
H680        H  0.44155838  0.06806982  0.76862153     0.10000
C681        C  0.27404672  0.89692796  0.79113682    -0.03800
C682        C  0.25161071  0.86252680  0.78930286    -0.09600
C683        C  0.22579680  0.84487062  0.79713539    -0.17200
C684        C  0.22215409  0.86129366  0.80689408     0.24900
C685        C  0.24438086  0.89539600  0.80883528    -0.18900
C686        C  0.27014615  0.91314003  0.80100721    -0.07800
C687        C  0.19560741  0.84311339  0.81491679    -0.14300
C688        C  0.17330529  0.82754774  0.82159582    -0.14000
C689        C  0.14666818  0.80862498  0.82950940     0.24800
C690        C  0.14215983  0.82445678  0.83926304    -0.19400
C691        C  0.11613280  0.80611330  0.84693129    -0.07900
C692        C  0.09423623  0.77165018  0.84491741    -0.03900
C693        C  0.09916430  0.75590860  0.83511552    -0.09300
C694        C  0.12522559  0.77433459  0.82746120    -0.16900
H695        H  0.25388421  0.84926719  0.78180538     0.11300
H696        H  0.20867678  0.81842916  0.79557988     0.10500
H697        H  0.24178863  0.90828358  0.81639163     0.10500
H698        H  0.28704332  0.93951698  0.80272297     0.11000
H699        H  0.15870244  0.85099916  0.84092384     0.11100
H700        H  0.11311815  0.81901533  0.85439446     0.11000
H701        H  0.08282481  0.72943604  0.83330779     0.11200
H702        H  0.12859758  0.76187265  0.81993023     0.10000
C703        C  0.34006941  0.89836299  0.75728842    -0.03800
C704        C  0.32135297  0.86281626  0.75624636    -0.09600
C705        C  0.32836804  0.84578428  0.74747167    -0.17200
C706        C  0.35409994  0.86401167  0.73964118     0.24900
C707        C  0.37283619  0.89931393  0.74058812    -0.18900
C708        C  0.36591690  0.91640718  0.74935573    -0.07800
C709        C  0.36051369  0.84664371  0.73037536    -0.14300
C710        C  0.36444265  0.83200393  0.72229338    -0.14000
C711        C  0.36684617  0.81438239  0.71226401     0.24800
C712        C  0.36927587  0.78451288  0.71360575    -0.19400
C713        C  0.36905424  0.76603546  0.70381354    -0.07900
C714        C  0.36624946  0.77721396  0.69256287    -0.03900
C715        C  0.36477238  0.80786858  0.69132947    -0.09300
C716        C  0.36499279  0.82622820  0.70111585    -0.16900
H717        H  0.30131765  0.84812476  0.76220146     0.11300
H718        H  0.31361807  0.81843890  0.74675360     0.10500
H719        H  0.39268292  0.91365761  0.73451186     0.10500
H720        H  0.38079375  0.94376027  0.74988710     0.11000
H721        H  0.37068262  0.77514928  0.72222361     0.11100
H722        H  0.37039649  0.74268347  0.70507777     0.11000
H723        H  0.36274270  0.81737413  0.68281796     0.11200
H724        H  0.36305248  0.84931154  0.69999703     0.10000
C725        C  0.78901853  0.06473941  0.84571077    -0.03800
C726        C  0.80887605  0.09564263  0.85128446    -0.09600
C727        C  0.80370631  0.12382995  0.84974690    -0.17200
C728        C  0.77855465  0.12138016  0.84267787     0.24900
C729        C  0.75907707  0.09095021  0.83697646    -0.18900
C730        C  0.76430802  0.06288506  0.83843417    -0.07800
C731        C  0.77173427  0.14942852  0.84143253    -0.14300
C732        C  0.76315400  0.17065439  0.83991030    -0.14000
C733        C  0.75038955  0.19361799  0.83749504     0.24800
C734        C  0.71891694  0.18081882  0.83327533    -0.19400
C735        C  0.70661855  0.20295476  0.83050089    -0.07900
C736        C  0.72571146  0.23831660  0.83190503    -0.03900
C737        C  0.75720388  0.25086946  0.83631144    -0.09300
C738        C  0.76942893  0.22865454  0.83907681    -0.16900
H739        H  0.82827496  0.09798732  0.85687246     0.11300
H740        H  0.81901391  0.14730916  0.85417672     0.10500
H741        H  0.73952264  0.08877137  0.83149748     0.10500
H742        H  0.74853324  0.03951486  0.83404584     0.11000
H743        H  0.70396867  0.15370921  0.83202053     0.11100
H744        H  0.68230275  0.19237246  0.82714946     0.11000
H745        H  0.77257517  0.27790684  0.83752776     0.11200
H746        H  0.79381550  0.23884336  0.84234104     0.10000
C747        C  0.83399166  0.00402037  0.86887213    -0.03800
C748        C  0.85206567  0.03354053  0.87540264    -0.09600
C749        C  0.87061548  0.03299514  0.88479517    -0.17200
C750        C  0.87135079  0.00296208  0.88785304     0.24900
C751        C  0.85345911  0.97344246  0.88144130    -0.18900
C752        C  0.83493832  0.97393721  0.87200716    -0.07800
C753        C  0.88984876  0.00228026  0.89772785    -0.14300
C754        C  0.90450958  0.00161499  0.90623518    -0.14000
C755        C  0.92090983  0.00066735  0.91668729     0.24800
C756        C  0.94887367  0.99706954  0.91600424    -0.19400
C757        C  0.96480462  0.99640641  0.92617317    -0.07900
C758        C  0.95293680  0.99929321  0.93718752    -0.03900
C759        C  0.92456698  0.00246373  0.93778539    -0.09300
C760        C  0.90876730  0.00325411  0.92759924    -0.16900
H761        H  0.85200561  0.05717546  0.87324638     0.11300
H762        H  0.88428674  0.05599222  0.88970132     0.10500
H763        H  0.85372839  0.94999544  0.88375967     0.10500
H764        H  0.82126794  0.95073406  0.86721757     0.11000
H765        H  0.95844220  0.99490663  0.90761483     0.11100
H766        H  0.98645237  0.99370607  0.92539896     0.11000
H767        H  0.91481925  0.00483754  0.94610457     0.11200
H768        H  0.88712189  0.00601675  0.92823313     0.10000
C769        C  0.63586073  0.44530030  0.79605875    -0.03800
C770        C  0.65801109  0.48034077  0.79651255    -0.09600
C771        C  0.64980614  0.50445286  0.79221443    -0.17200
C772        C  0.61944251  0.49408119  0.78734826     0.24900
C773        C  0.59728488  0.45933973  0.78667142    -0.18900
C774        C  0.60544598  0.43500747  0.79099517    -0.07800
C775        C  0.61163285  0.51962235  0.78312382    -0.14300
C776        C  0.60914446  0.54410283  0.78003560    -0.14000
C777        C  0.61064100  0.57609039  0.77697895     0.24800
C778        C  0.61862579  0.60083317  0.78550330    -0.19400
C779        C  0.62287832  0.63306745  0.78249730    -0.07900
C780        C  0.61907379  0.64099551  0.77090550    -0.03900
C781        C  0.61051179  0.61577978  0.76240113    -0.09300
C782        C  0.60649609  0.58352833  0.76542688    -0.16900
H783        H  0.68167302  0.48929219  0.80030224     0.11300
H784        H  0.66715320  0.53129013  0.79274687     0.10500
H785        H  0.57372098  0.45109911  0.78287853     0.10500
H786        H  0.58787661  0.40826999  0.79048796     0.11000
H787        H  0.62211035  0.59539629  0.79445406     0.11100
H788        H  0.62920597  0.65179668  0.78926627     0.11000
H789        H  0.60751872  0.62115934  0.75339690     0.11200
H790        H  0.60065850  0.56461390  0.75874456     0.10000
C791        C  0.76697905  0.94949120  0.83443418    -0.03800
C792        C  0.74999940  0.95122390  0.82459748    -0.09600
C793        C  0.73547026  0.92364925  0.81707624    -0.17200
C794        C  0.73762448  0.89389664  0.81924571     0.24900
C795        C  0.75447965  0.89190754  0.82897472    -0.18900
C796        C  0.76906981  0.91946761  0.83650981    -0.07800
C797        C  0.72242771  0.86543699  0.81151208    -0.14300
C798        C  0.70934291  0.84196395  0.80492471    -0.14000
C799        C  0.69317582  0.81458675  0.79685240     0.24800
C800        C  0.69225914  0.78311522  0.79875450    -0.19400
C801        C  0.67625572  0.75658308  0.79093555    -0.07900
C802        C  0.66100477  0.76121783  0.78106835    -0.03900
C803        C  0.66217156  0.79298312  0.77923187    -0.09300
C804        C  0.67809794  0.81940555  0.78707528    -0.16900
H805        H  0.74791267  0.97388788  0.82268499     0.11300
H806        H  0.72251315  0.92553373  0.80957256     0.10500
H807        H  0.75632187  0.86902224  0.83075027     0.10500
H808        H  0.78191429  0.91718682  0.84397058     0.11000
H809        H  0.70384640  0.77905387  0.80628647     0.11100
H810        H  0.67591588  0.73250475  0.79261692     0.11000
H811        H  0.65064374  0.79742933  0.77176655     0.11200
H812        H  0.67860004  0.84362428  0.78551868     0.10000
C813        C  0.60226405  0.71837917  0.74431458    -0.03800
C814        C  0.59966164  0.74827711  0.74269248    -0.09600
C815        C  0.58468010  0.75258869  0.73280101    -0.17200
C816        C  0.57241329  0.72725469  0.72437553     0.24900
C817        C  0.57539252  0.69775574  0.72581220    -0.18900
C818        C  0.59020176  0.69331014  0.73570140    -0.07800
C819        C  0.55511663  0.73043241  0.71457839    -0.14300
C820        C  0.53827208  0.73090445  0.70680035    -0.14000
C821        C  0.51510752  0.72922763  0.69838705     0.24800
C822        C  0.52104421  0.72889057  0.68641297    -0.19400
C823        C  0.49748872  0.72569546  0.67839391    -0.07900
C824        C  0.46767996  0.72246767  0.68231934    -0.03900
C825        C  0.46221550  0.72323965  0.69436207    -0.09300
C826        C  0.48577661  0.72662763  0.70231675    -0.16900
H827        H  0.60853729  0.76799808  0.74917525     0.11300
H828        H  0.58222892  0.77540427  0.73181630     0.10500
H829        H  0.56579179  0.67791199  0.71937059     0.10500
H830        H  0.59188661  0.67006143  0.73664609     0.11000
H831        H  0.54361918  0.73062647  0.68329566     0.11100
H832        H  0.50222045  0.72480741  0.66917998     0.11000
H833        H  0.43955759  0.72088341  0.69766206     0.11200
H834        H  0.48091631  0.72673604  0.71156518     0.10000
C835        C  0.03185068  0.34973243  0.43541674    -0.03800
C836        C  0.05172250  0.35050528  0.44465427    -0.09600
C837        C  0.06018823  0.32466313  0.44603841    -0.17200
C838        C  0.04892305  0.29771385  0.43823487     0.24900
C839        C  0.02944618  0.29685907  0.42894584    -0.18900
C840        C  0.02105837  0.32277365  0.42750477    -0.07800
C841        C  0.05499866  0.26953245  0.44037772    -0.14300
C842        C  0.05684429  0.24440289  0.44308857    -0.14000
C843        C  0.05434385  0.21291296  0.44740532     0.24800
C844        C  0.08172513  0.20836454  0.44833384    -0.19400
C845        C  0.07887467  0.17819948  0.45325659    -0.07900
C846        C  0.04861517  0.15241759  0.45737754    -0.03900
C847        C  0.02121372  0.15712499  0.45617016    -0.09300
C848        C  0.02411854  0.18713341  0.45122993    -0.16900
H849        H  0.06048524  0.37088313  0.45089337     0.11300
H850        H  0.07497473  0.32534150  0.45333576     0.10500
H851        H  0.02021694  0.27582612  0.42295454     0.10500
H852        H  0.00555382  0.32127128  0.42035381     0.11000
H853        H  0.10527120  0.22825184  0.44542032     0.11100
H854        H  0.10041102  0.17534489  0.45402367     0.11000
H855        H  0.99749504  0.13776882  0.45914200     0.11200
H856        H  0.00279596  0.19045484  0.45055608     0.10000
C857        C  0.03136839  0.68738622  0.53217188    -0.03800
C858        C  0.04255082  0.71569793  0.53950223    -0.09600
C859        C  0.03534876  0.74212855  0.53709679    -0.17200
C860        C  0.01669154  0.74042356  0.52741780     0.24900
C861        C  0.00463891  0.71189460  0.52030527    -0.18900
C862        C  0.01186698  0.68555375  0.52265873    -0.07800
C863        C  0.01215888  0.76903629  0.52416620    -0.14300
C864        C  0.01089505  0.79380031  0.52054531    -0.14000
C865        C  0.01299585  0.82421782  0.51531475     0.24800
C866        C  0.98707446  0.83133745  0.51605529    -0.19400
C867        C  0.98943721  0.86075335  0.51065510    -0.07900
C868        C  0.01779448  0.88333391  0.50444797    -0.03900
C869        C  0.04371867  0.87589911  0.50385063    -0.09300
C870        C  0.04126656  0.84657916  0.50922175    -0.16900
H871        H  0.05762505  0.71792358  0.54688054     0.11300
H872        H  0.04500834  0.76425969  0.54260724     0.10500
H873        H  0.99033224  0.71039606  0.51275476     0.10500
H874        H  0.00265432  0.66405457  0.51687477     0.11000
H875        H  0.96503352  0.81411232  0.52073872     0.11100
H876        H  0.96906677  0.86571351  0.51130102     0.11000
H877        H  0.06590369  0.89257435  0.49914481     0.11200
H878        H  0.06142678  0.84124361  0.50856315     0.10000
C879        C  0.02073570  0.44444661  0.45231142    -0.03800
C880        C  0.03925120  0.44504787  0.46198449    -0.09600
C881        C  0.04220384  0.46551897  0.47151028    -0.17200
C882        C  0.02662858  0.48550724  0.47150371     0.24900
C883        C  0.00848684  0.48539336  0.46188704    -0.18900
C884        C  0.00558012  0.46505926  0.45234091    -0.07800
C885        C  0.02890576  0.50589111  0.48139785    -0.14300
C886        C  0.03050852  0.52326613  0.48956771    -0.14000
C887        C  0.03274774  0.54481485  0.49909158     0.24800
C888        C  0.02368545  0.57019819  0.49754207    -0.19400
C889        C  0.02707349  0.59214679  0.50662772    -0.07900
C890        C  0.03965628  0.58898114  0.51738788    -0.03900
C891        C  0.04822706  0.56299442  0.51890861    -0.09300
C892        C  0.04475748  0.54104890  0.50980989    -0.16900
H893        H  0.05133459  0.42960678  0.46222932     0.11300
H894        H  0.05640407  0.46554882  0.47891052     0.10500
H895        H  0.99637312  0.50083095  0.46180406     0.10500
H896        H  0.99108717  0.46515906  0.44506514     0.11000
H897        H  0.01435530  0.57328288  0.48926362     0.11100
H898        H  0.02027648  0.61186716  0.50515268     0.11000
H899        H  0.05790441  0.55977615  0.52708255     0.11200
H900        H  0.05179430  0.52142050  0.51109033     0.10000
C901        C  0.23697364  0.64851064  0.61410243    -0.03800
C902        C  0.20484701  0.63589948  0.61817972    -0.09600
C903        C  0.18015799  0.63098551  0.61043927    -0.17200
C904        C  0.18722731  0.63852083  0.59854475     0.24900
C905        C  0.21888249  0.65023272  0.59437318    -0.18900
C906        C  0.24356490  0.65518306  0.60206823    -0.07800
C907        C  0.16246906  0.63548521  0.59060429    -0.14300
C908        C  0.14330256  0.63439440  0.58347466    -0.14000
C909        C  0.12211852  0.63387542  0.57439990     0.24800
C910        C  0.10774356  0.60580026  0.56711214    -0.19400
C911        C  0.08887935  0.60602229  0.55780990    -0.07900
C912        C  0.08410972  0.63440505  0.55564441    -0.03900
C913        C  0.09801645  0.66222411  0.56318476    -0.09300
C914        C  0.11703206  0.66198375  0.57248175    -0.16900
H915        H  0.19885895  0.63040416  0.62736632     0.11300
H916        H  0.15569473  0.62183746  0.61375614     0.10500
H917        H  0.22461214  0.65608075  0.58517837     0.10500
H918        H  0.26791599  0.66478431  0.59858785     0.11000
H919        H  0.11156572  0.58394934  0.56849633     0.11100
H920        H  0.07838882  0.58408649  0.55222177     0.11000
H921        H  0.09492605  0.68449140  0.56172888     0.11200
H922        H  0.12820836  0.68393823  0.57804804     0.10000
C923        C  0.73654383  0.65730673  0.44430114    -0.03800
C924        C  0.73275845  0.67974106  0.45188263    -0.09600
C925        C  0.75899162  0.71152581  0.45422077    -0.17200
C926        C  0.78931388  0.72114684  0.44909358     0.24900
C927        C  0.79346208  0.69884066  0.44168719    -0.18900
C928        C  0.76724336  0.66711577  0.43928694    -0.07800
C929        C  0.81625799  0.75372683  0.45157726    -0.14300
C930        C  0.83873139  0.78079349  0.45398955    -0.14000
C931        C  0.86530682  0.81270715  0.45732304     0.24800
C932        C  0.87113555  0.82031036  0.46913780    -0.19400
C933        C  0.89681036  0.85138571  0.47246166    -0.07900
C934        C  0.91701720  0.87533186  0.46398159    -0.03900
C935        C  0.91104805  0.86727899  0.45210533    -0.09300
C936        C  0.88532406  0.83615715  0.44881100    -0.16900
H937        H  0.70945820  0.67297888  0.45587722     0.11300
H938        H  0.75561497  0.72861932  0.46000588     0.10500
H939        H  0.81692688  0.70599732  0.43774615     0.10500
H940        H  0.77102614  0.65031954  0.43349632     0.11000
H941        H  0.85577496  0.80223676  0.47578673     0.11100
H942        H  0.90072874  0.85664590  0.48167140     0.11000
H943        H  0.92614577  0.88503683  0.44534583     0.11200
H944        H  0.88101162  0.83042901  0.43963620     0.10000
C945        C  0.14705313  0.16045142  0.49582064    -0.03800
C946        C  0.15478168  0.16862604  0.50760456    -0.09600
C947        C  0.18062697  0.20014528  0.51060318    -0.17200
C948        C  0.19901491  0.22397086  0.50188894     0.24900
C949        C  0.19117787  0.21632565  0.49017310    -0.18900
C950        C  0.16544355  0.18485653  0.48714933    -0.07800
C951        C  0.22610180  0.25616593  0.50489322    -0.14300
C952        C  0.24887011  0.28342931  0.50705780    -0.14000
C953        C  0.27566404  0.31652585  0.50934982     0.24800
C954        C  0.30400214  0.32939226  0.50251034    -0.19400
C955        C  0.32940512  0.36215730  0.50440807    -0.07900
C956        C  0.32679836  0.38252141  0.51319985    -0.03900
C957        C  0.29841552  0.36908954  0.52014684    -0.09300
C958        C  0.27304789  0.33637321  0.51821208    -0.16900
H959        H  0.14114643  0.15053526  0.51450751     0.11300
H960        H  0.18640419  0.20581950  0.51970910     0.10500
H961        H  0.20512810  0.23461845  0.48335364     0.10500
H962        H  0.16008835  0.17962432  0.47800177     0.11000
H963        H  0.30632455  0.31425556  0.49562575     0.11100
H964        H  0.35094746  0.37157957  0.49893234     0.11000
H965        H  0.29556754  0.38399776  0.52698613     0.11200
H966        H  0.25122690  0.32670215  0.52355298     0.10000
C967        C  0.43107333  0.47919398  0.50072897    -0.03800
C968        C  0.43440768  0.45910613  0.49201555    -0.09600
C969        C  0.46110325  0.47292498  0.48440267    -0.17200
C970        C  0.48474969  0.50697226  0.48535788     0.24900
C971        C  0.48148025  0.52738716  0.49385651    -0.18900
C972        C  0.45480359  0.51360284  0.50151290    -0.07800
C973        C  0.51290361  0.52049440  0.47787483    -0.14300
C974        C  0.53693184  0.53118758  0.47183784    -0.14000
C975        C  0.56618648  0.54396643  0.46497334     0.24800
C976        C  0.59290910  0.57488075  0.46782780    -0.19400
C977        C  0.62161210  0.58727770  0.46129370    -0.07900
C978        C  0.62395783  0.56881771  0.45180775    -0.03900
C979        C  0.59686584  0.53773238  0.44899593    -0.09300
C980        C  0.56816469  0.52539396  0.45555600    -0.16900
H981        H  0.41661485  0.43256592  0.49115026     0.11300
H982        H  0.46348735  0.45693384  0.47785542     0.10500
H983        H  0.49971611  0.55381471  0.49465046     0.10500
H984        H  0.45289675  0.52982833  0.50806996     0.11000
H985        H  0.59158569  0.58937218  0.47512845     0.11100
H986        H  0.64194754  0.61127593  0.46370584     0.11000
H987        H  0.59781505  0.52288292  0.44175374     0.11200
H988        H  0.54757610  0.50136344  0.45330431     0.10000
C989        C  0.37411123  0.48861692  0.53562873    -0.03800
C990        C  0.40139821  0.51917294  0.53875169    -0.09600
C991        C  0.39991787  0.53756229  0.54831900    -0.17200
C992        C  0.37113758  0.52578386  0.55483530     0.24900
C993        C  0.34384307  0.49559294  0.55174290    -0.18900
C994        C  0.34529251  0.47709263  0.54222669    -0.07800
C995        C  0.36945089  0.54439169  0.56474437    -0.14300
C996        C  0.36680350  0.55880191  0.57317665    -0.14000
C997        C  0.36249169  0.57469868  0.58339734     0.24800
C998        C  0.36608025  0.60762193  0.58265784    -0.19400
C999        C  0.36161811  0.62286090  0.59259288    -0.07900
C1000       C  0.35363149  0.60536996  0.60342532    -0.03900
C1001       C  0.35002018  0.57225073  0.60406030    -0.09300
C1002       C  0.35433200  0.55702221  0.59410311    -0.16900
H1003       H  0.42399064  0.52870926  0.53388714     0.11300
H1004       H  0.42121774  0.56088455  0.55064651     0.10500
H1005       H  0.32142809  0.48627500  0.55671725     0.10500
H1006       H  0.32380589  0.45380482  0.54003370     0.11000
H1007       H  0.37240574  0.62154635  0.57441449     0.11100
H1008       H  0.36492991  0.64852498  0.59182311     0.11000
H1009       H  0.34387567  0.55809331  0.61225087     0.11200
H1010       H  0.35138364  0.53147458  0.59476288     0.10000
C1011       C  0.39532947  0.09609005  0.45048902    -0.03800
C1012       C  0.38237191  0.11203599  0.44320368    -0.09600
C1013       C  0.35225769  0.10980902  0.44578260    -0.17200
C1014       C  0.33456804  0.09172454  0.45569203     0.24900
C1015       C  0.34735301  0.07607222  0.46308582    -0.18900
C1016       C  0.37751340  0.07825374  0.46052450    -0.07800
C1017       C  0.30294314  0.08843080  0.45806561    -0.14300
C1018       C  0.27589917  0.08415582  0.45996570    -0.14000
C1019       C  0.24278877  0.07607714  0.46244965     0.24800
C1020       C  0.22242787  0.04575077  0.46844424    -0.19400
C1021       C  0.19017051  0.03704435  0.47078939    -0.07900
C1022       C  0.17755847  0.05859396  0.46719183    -0.03900
C1023       C  0.19823439  0.08919297  0.46119214    -0.09300
C1024       C  0.23063382  0.09782728  0.45882088    -0.16900
H1025       H  0.39533680  0.12602242  0.43542402     0.11300
H1026       H  0.34263983  0.12197062  0.43997549     0.10500
H1027       H  0.33388225  0.06191787  0.47077732     0.10500
H1028       H  0.38668822  0.06570363  0.46634623     0.11000
H1029       H  0.23148873  0.02870027  0.47129727     0.11100
H1030       H  0.17515922  0.01337366  0.47547519     0.11000
H1031       H  0.18939050  0.10638467  0.45830964     0.11200
H1032       H  0.24614056  0.12138393  0.45414955     0.10000
C1033       C  0.66572820  0.92390451  0.51044732    -0.03800
C1034       C  0.68167397  0.94083783  0.50003937    -0.09600
C1035       C  0.71290097  0.94607077  0.49741602    -0.17200
C1036       C  0.72864241  0.93454754  0.50515262     0.24900
C1037       C  0.71290472  0.91752471  0.51548302    -0.18900
C1038       C  0.68169385  0.91215888  0.51810598    -0.07800
C1039       C  0.76117139  0.94079810  0.50263313    -0.14300
C1040       C  0.78872750  0.94695218  0.50062868    -0.14000
C1041       C  0.82205527  0.95599641  0.49815846     0.24800
C1042       C  0.84283362  0.98790731  0.49317603    -0.19400
C1043       C  0.87516471  0.99704375  0.49072087    -0.07900
C1044       C  0.88736087  0.97434328  0.49318812    -0.03900
C1045       C  0.86631657  0.94233395  0.49828757    -0.09300
C1046       C  0.83388251  0.93324870  0.50074348    -0.16900
H1047       H  0.67009236  0.95011337  0.49393613     0.11300
H1048       H  0.72485112  0.95931215  0.48939107     0.10500
H1049       H  0.72484280  0.90857577  0.52155894     0.10500
H1050       H  0.67025589  0.89912899  0.52621334     0.11000
H1051       H  0.83402302  0.00577423  0.49116190     0.11100
H1052       H  0.89055403  0.02192406  0.48683416     0.11000
H1053       H  0.87482897  0.92425126  0.50032577     0.11200
H1054       H  0.81803796  0.90848125  0.50463235     0.10000
C1055       C  0.57450295  0.94759575  0.50332732    -0.03800
C1056       C  0.54454732  0.94467696  0.50694813    -0.09600
C1057       C  0.53046977  0.96117606  0.50072985    -0.17200
C1058       C  0.54602985  0.98084563  0.49080210     0.24900
C1059       C  0.57570205  0.98376503  0.48704346    -0.18900
C1060       C  0.58989732  0.96727966  0.49326557    -0.07800
C1061       C  0.53163564  0.99828745  0.48458323    -0.14300
C1062       C  0.51978855  0.01306300  0.47934388    -0.14000
C1063       C  0.50678852  0.03100726  0.47262037     0.24800
C1064       C  0.52329418  0.04911324  0.46255678    -0.19400
C1065       C  0.51067666  0.06600513  0.45576582    -0.07900
C1066       C  0.48124783  0.06509002  0.45894051    -0.03900
C1067       C  0.46490435  0.04702259  0.46915357    -0.09300
C1068       C  0.47763161  0.03009169  0.47594992    -0.16900
H1069       H  0.53197205  0.92978643  0.51464000     0.11300
H1070       H  0.50749725  0.95872398  0.50370871     0.10500
H1071       H  0.58793761  0.99891360  0.47934473     0.10500
H1072       H  0.61290878  0.97003675  0.49021421     0.11000
H1073       H  0.54588046  0.05000404  0.45990779     0.11100
H1074       H  0.52397958  0.07963803  0.44798656     0.11000
H1075       H  0.44224339  0.04580541  0.47186483     0.11200
H1076       H  0.46465599  0.01614861  0.48374379     0.10000
C1077       C  0.56978562  0.87407734  0.53646335    -0.03800
C1078       C  0.58259355  0.85590874  0.54264626    -0.09600
C1079       C  0.56707855  0.83721531  0.55275608    -0.17200
C1080       C  0.53860763  0.83644203  0.55684488     0.24900
C1081       C  0.52538935  0.85398307  0.55067043    -0.18900
C1082       C  0.54081039  0.87264149  0.54054187    -0.07800
C1083       C  0.52296048  0.81785932  0.56739948    -0.14300
C1084       C  0.50850975  0.80245404  0.57609186    -0.14000
C1085       C  0.48873741  0.78398879  0.58603994     0.24800
C1086       C  0.45573733  0.76199335  0.58453916    -0.19400
C1087       C  0.43569290  0.74547740  0.59415812    -0.07900
C1088       C  0.44834213  0.75072908  0.60548587    -0.03900
C1089       C  0.48180411  0.77216520  0.60688971    -0.09300
C1090       C  0.50184621  0.78878427  0.59721797    -0.16900
H1091       H  0.60473236  0.85627667  0.53972786     0.11300
H1092       H  0.57743125  0.82358642  0.55742854     0.10500
H1093       H  0.50327375  0.85344833  0.55373547     0.10500
H1094       H  0.53023491  0.88625460  0.53600563     0.11000
H1095       H  0.44534980  0.75803266  0.57592922     0.11100
H1096       H  0.41016135  0.72893515  0.59271538     0.11000
H1097       H  0.49236369  0.77673002  0.61547097     0.11200
H1098       H  0.52739489  0.80576609  0.59848222     0.10000
C1099       C  0.82986543  0.38088098  0.35179326    -0.03800
C1100       C  0.82247004  0.37906246  0.36379430    -0.09600
C1101       C  0.84637905  0.38605813  0.37208660    -0.17200
C1102       C  0.87801091  0.39485716  0.36854691     0.24900
C1103       C  0.88566259  0.39668681  0.35664591    -0.18900
C1104       C  0.86179527  0.38980894  0.34831643    -0.07800
C1105       C  0.90219515  0.40083772  0.37717398    -0.14300
C1106       C  0.92119382  0.40401752  0.38469701    -0.14000
C1107       C  0.94211960  0.40521215  0.39399727     0.24800
C1108       C  0.95230488  0.43090913  0.40228420    -0.19400
C1109       C  0.97058114  0.43044321  0.41178615    -0.07900
C1110       C  0.97889020  0.40419217  0.41313663    -0.03900
C1111       C  0.96928194  0.37902346  0.40457516    -0.09300
C1112       C  0.95095889  0.37951695  0.39510250    -0.16900
H1113       H  0.79816785  0.37214291  0.36680208     0.11300
H1114       H  0.84011246  0.38433744  0.38127392     0.10500
H1115       H  0.91000590  0.40317394  0.35380490     0.10500
H1116       H  0.86826731  0.39107050  0.33917140     0.11000
H1117       H  0.94561470  0.45093865  0.40152565     0.11100
H1118       H  0.97774943  0.45035906  0.41816005     0.11000
H1119       H  0.97525963  0.35848407  0.40531625     0.11200
H1120       H  0.94315215  0.35945856  0.38875127     0.10000
C1121       C  0.68716650  0.55663201  0.41944979    -0.03800
C1122       C  0.66335133  0.52268538  0.41774776    -0.09600
C1123       C  0.66619203  0.50418406  0.40847049    -0.17200
C1124       C  0.69273502  0.51939108  0.40074864     0.24900
C1125       C  0.71622728  0.55332049  0.40225588    -0.18900
C1126       C  0.71353581  0.57181607  0.41154908    -0.07800
C1127       C  0.69631212  0.50004966  0.39142525    -0.14300
C1128       C  0.69991550  0.48411634  0.38365614    -0.14000
C1129       C  0.70437689  0.46534676  0.37431842     0.24800
C1130       C  0.70395203  0.47510687  0.36271203    -0.19400
C1131       C  0.70773851  0.45663371  0.35361302    -0.07900
C1132       C  0.71200098  0.42799710  0.35598195    -0.03900
C1133       C  0.71272059  0.41863171  0.36771079    -0.09300
C1134       C  0.70894815  0.43718558  0.37679490    -0.16900
H1135       H  0.64276869  0.51024480  0.42367036     0.11300
H1136       H  0.64784396  0.47793667  0.40738414     0.10500
H1137       H  0.73680862  0.56539562  0.39630862     0.10500
H1138       H  0.73214817  0.59797896  0.41254539     0.11000
H1139       H  0.70048917  0.49689724  0.36068674     0.11100
H1140       H  0.70701820  0.46463787  0.34472178     0.11000
H1141       H  0.71596383  0.39680956  0.36988713     0.11200
H1142       H  0.70939690  0.42942392  0.38574894     0.10000
C1143       C  0.61988714  0.25725627  0.35601938    -0.03800
C1144       C  0.63236163  0.25773734  0.36718755    -0.09600
C1145       C  0.61183837  0.23896936  0.37643938    -0.17200
C1146       C  0.57853648  0.21944308  0.37472039     0.24900
C1147       C  0.56582457  0.21861935  0.36365432    -0.18900
C1148       C  0.58635202  0.23735551  0.35434789    -0.07800
C1149       C  0.55764833  0.20040566  0.38437561    -0.14300
C1150       C  0.54153765  0.18505092  0.39281300    -0.14000
C1151       C  0.52378869  0.16725777  0.40321131     0.24800
C1152       C  0.49293700  0.16346497  0.40553681    -0.19400
C1153       C  0.47607328  0.14673207  0.41576440    -0.07900
C1154       C  0.48983608  0.13346610  0.42380801    -0.03900
C1155       C  0.52085099  0.13733491  0.42134615    -0.09300
C1156       C  0.53766752  0.15413554  0.41113891    -0.16900
H1157       H  0.65802868  0.27260118  0.36881328     0.11300
H1158       H  0.62196933  0.23974860  0.38495473     0.10500
H1159       H  0.54006366  0.20355330  0.36222282     0.10500
H1160       H  0.57594354  0.23637517  0.34588055     0.11000
H1161       H  0.48194936  0.17353156  0.39946568     0.11100
H1162       H  0.45223899  0.14411973  0.41734398     0.11000
H1163       H  0.53225351  0.12752017  0.42732339     0.11200
H1164       H  0.56156463  0.15697967  0.40944842     0.10000
C1165       C  0.73957596  0.68464917  0.10642351    -0.03800
C1166       C  0.72135493  0.66662875  0.11636220    -0.09600
C1167       C  0.69118303  0.66451290  0.11881015    -0.17200
C1168       C  0.67861690  0.68026708  0.11137704     0.24900
C1169       C  0.69628480  0.69778763  0.10136856    -0.18900
C1170       C  0.72647189  0.69993439  0.09889355    -0.07800
C1171       C  0.64808159  0.67920839  0.11421547    -0.14300
C1172       C  0.62300178  0.67887791  0.11695522    -0.14000
C1173       C  0.59353359  0.67903814  0.12061384     0.24800
C1174       C  0.57314217  0.68193018  0.11235984    -0.19400
C1175       C  0.54465958  0.68214267  0.11593494    -0.07900
C1176       C  0.53607157  0.67948057  0.12785239    -0.03900
C1177       C  0.55692402  0.67693623  0.13609147    -0.09300
C1178       C  0.58534001  0.67662916  0.13248671    -0.16900
H1179       H  0.73053531  0.65445351  0.12234180     0.11300
H1180       H  0.67780267  0.65087046  0.12658471     0.10500
H1181       H  0.68689502  0.71011584  0.09553382     0.10500
H1182       H  0.73968966  0.71394210  0.09115169     0.11000
H1183       H  0.57920369  0.68393997  0.10314811     0.11100
H1184       H  0.52930962  0.68425767  0.10934610     0.11000
H1185       H  0.55111497  0.67474057  0.14532473     0.11200
H1186       H  0.60090240  0.67442783  0.13897331     0.10000
C1187       C  0.83963774  0.73046126  0.08220576    -0.03800
C1188       C  0.87051636  0.73380758  0.07985247    -0.09600
C1189       C  0.88926309  0.75370997  0.07038455    -0.17200
C1190       C  0.87750629  0.77057133  0.06311191     0.24900
C1191       C  0.84673168  0.76717468  0.06530097    -0.18900
C1192       C  0.82790392  0.74724850  0.07475643    -0.07800
C1193       C  0.89744603  0.79229935  0.05366995    -0.14300
C1194       C  0.91437604  0.81184144  0.04608558    -0.14000
C1195       C  0.93441393  0.83708191  0.03745761     0.24800
C1196       C  0.93467811  0.82813313  0.02580986    -0.19400
C1197       C  0.95256401  0.85323478  0.01736555    -0.07900
C1198       C  0.97035688  0.88770444  0.02045821    -0.03900
C1199       C  0.97061583  0.89622448  0.03226344    -0.09300
C1200       C  0.95278506  0.87110827  0.04067024    -0.16900
H1201       H  0.88036128  0.72126440  0.08537036     0.11300
H1202       H  0.91307599  0.75621422  0.06880846     0.10500
H1203       H  0.83739893  0.78020825  0.05976514     0.10500
H1204       H  0.80432147  0.74533190  0.07629458     0.11000
H1205       H  0.92057589  0.80186959  0.02321138     0.11100
H1206       H  0.95179190  0.84573050  0.00838156     0.11000
H1207       H  0.98406995  0.92241648  0.03499911     0.11200
H1208       H  0.95282766  0.87835430  0.04965666     0.10000
C1209       C  0.26426110  0.64966128  0.16222934    -0.03800
C1210       C  0.24206308  0.64985610  0.15409449    -0.09600
C1211       C  0.21127302  0.64383863  0.15774035    -0.17200
C1212       C  0.20219961  0.63748404  0.16953905     0.24900
C1213       C  0.22422143  0.63774829  0.17771792    -0.18900
C1214       C  0.25504401  0.64384542  0.17410783    -0.07800
C1215       C  0.16987775  0.62935262  0.17316998    -0.14300
C1216       C  0.14228178  0.62131883  0.17588496    -0.14000
C1217       C  0.10880282  0.61077654  0.17855215     0.24800
C1218       C  0.09348714  0.58969969  0.18826360    -0.19400
C1219       C  0.06058708  0.57845628  0.19054297    -0.07900
C1220       C  0.04256565  0.58814615  0.18310765    -0.03900
C1221       C  0.05835411  0.60959956  0.17343109    -0.09300
C1222       C  0.09119013  0.62077465  0.17118014    -0.16900
H1223       H  0.24835931  0.65439955  0.14490184     0.11300
H1224       H  0.19438989  0.64369013  0.15133353     0.10500
H1225       H  0.21742580  0.63279137  0.18686959     0.10500
H1226       H  0.27144768  0.64347042  0.18061249     0.11000
H1227       H  0.10688823  0.58171524  0.19401170     0.11100
H1228       H  0.04926428  0.56200112  0.19806909     0.11000
H1229       H  0.04531809  0.61758658  0.16751846     0.11200
H1230       H  0.10277820  0.63698804  0.16361741     0.10000
C1231       C  0.93998170  0.58465653  0.17184057    -0.03800
C1232       C  0.90608264  0.57037577  0.17289971    -0.09600
C1233       C  0.88904533  0.58103429  0.16545927    -0.17200
C1234       C  0.90558986  0.60613040  0.15687034     0.24900
C1235       C  0.93927483  0.62046552  0.15574681    -0.18900
C1236       C  0.95635079  0.60980015  0.16314476    -0.07800
C1237       C  0.88811582  0.61704251  0.14912996    -0.14300
C1238       C  0.87431641  0.62660406  0.14241931    -0.14000
C1239       C  0.85899573  0.63871696  0.13413633     0.24800
C1240       C  0.87417739  0.65250244  0.12337964    -0.19400
C1241       C  0.85991432  0.66506957  0.11540974    -0.07900
C1242       C  0.83010827  0.66400208  0.11805725    -0.03900
C1243       C  0.81480029  0.64966760  0.12884322    -0.09300
C1244       C  0.82919478  0.63718907  0.13682441    -0.16900
H1245       H  0.89267180  0.55091409  0.17945871     0.11300
H1246       H  0.86296847  0.56967997  0.16640447     0.10500
H1247       H  0.95237130  0.63989807  0.14913447     0.10500
H1248       H  0.98240237  0.62141803  0.16207799     0.11000
H1249       H  0.89719839  0.65376435  0.12117629     0.11100
H1250       H  0.87235380  0.67574288  0.10718767     0.11000
H1251       H  0.79189725  0.64844690  0.13118642     0.11200
H1252       H  0.81717996  0.62656214  0.14511975     0.10000
C1253       C  0.94286121  0.51916831  0.20640081    -0.03800
C1254       C  0.96042993  0.51161287  0.21475516    -0.09600
C1255       C  0.94455226  0.49017140  0.22432820    -0.17200
C1256       C  0.91093949  0.47591447  0.22567305     0.24900
C1257       C  0.89320870  0.48290532  0.21734477    -0.18900
C1258       C  0.90901020  0.50438913  0.20778928    -0.07800
C1259       C  0.89466049  0.45527914  0.23581439    -0.14300
C1260       C  0.87972167  0.43913167  0.24432701    -0.14000
C1261       C  0.85981117  0.42110150  0.25429761     0.24800
C1262       C  0.82775938  0.39612507  0.25267102    -0.19400
C1263       C  0.80722897  0.38077972  0.26227891    -0.07900
C1264       C  0.81844431  0.39024365  0.27370663    -0.03900
C1265       C  0.85104159  0.41461003  0.27527512    -0.09300
C1266       C  0.87155779  0.43000074  0.26561560    -0.16900
H1267       H  0.98648917  0.52253844  0.21397942     0.11300
H1268       H  0.95853466  0.48502760  0.23074291     0.10500
H1269       H  0.86717385  0.47205561  0.21830732     0.10500
H1270       H  0.89468410  0.50950465  0.20152576     0.11000
H1271       H  0.81837406  0.38910635  0.24395693     0.11100
H1272       H  0.78234155  0.36203470  0.26071995     0.11000
H1273       H  0.86043850  0.42252767  0.28393355     0.11200
H1274       H  0.89632032  0.44943260  0.26697139     0.10000
C1275       C  0.52905289  0.79345966  0.16208204    -0.03800
C1276       C  0.53170297  0.82618381  0.16104373    -0.09600
C1277       C  0.55893454  0.85478058  0.16506078    -0.17200
C1278       C  0.58411162  0.85140533  0.17020750     0.24900
C1279       C  0.58212407  0.81913172  0.17115976    -0.18900
C1280       C  0.55473681  0.79028123  0.16712613    -0.07800
C1281       C  0.61151098  0.88135370  0.17456480    -0.14300
C1282       C  0.63294915  0.90827386  0.17778632    -0.14000
C1283       C  0.65735734  0.94191258  0.18093706     0.24800
C1284       C  0.65240991  0.95810616  0.19052410    -0.19400
C1285       C  0.67518442  0.99160955  0.19309323    -0.07900
C1286       C  0.70318765  0.00944568  0.18605802    -0.03900
C1287       C  0.70807150  0.99278026  0.17652160    -0.09300
C1288       C  0.68531817  0.95928330  0.17399588    -0.16900
H1289       H  0.51260763  0.82982725  0.15717681     0.11300
H1290       H  0.56022721  0.87959674  0.16422343     0.10500
H1291       H  0.60158028  0.81623527  0.17508255     0.10500
H1292       H  0.55361628  0.76557712  0.16800409     0.11000
H1293       H  0.63073862  0.94501966  0.19591613     0.11100
H1294       H  0.67060054  0.00364991  0.20048569     0.11000
H1295       H  0.72934938  0.00566767  0.17093802     0.11200
H1296       H  0.68931836  0.94709408  0.16651595     0.10000
C1297       C  0.74008435  0.11028871  0.21081020    -0.03800
C1298       C  0.71288290  0.09264424  0.21822496    -0.09600
C1299       C  0.70785233  0.10882376  0.22776288    -0.17200
C1300       C  0.72992947  0.14277374  0.23002506     0.24900
C1301       C  0.75728784  0.16040305  0.22281863    -0.18900
C1302       C  0.76237280  0.14431340  0.21326946    -0.07800
C1303       C  0.72436758  0.15984459  0.23960926    -0.14300
C1304       C  0.72078371  0.17540950  0.24747568    -0.14000
C1305       C  0.71833007  0.19535147  0.25678049     0.24800
C1306       C  0.71011453  0.22105337  0.25440526    -0.19400
C1307       C  0.70958288  0.24174123  0.26337448    -0.07900
C1308       C  0.71726663  0.23691249  0.27484989    -0.03900
C1309       C  0.72498471  0.21059777  0.27714225    -0.09300
C1310       C  0.72555882  0.19004146  0.26816423    -0.16900
H1311       H  0.69525042  0.06645488  0.21659645     0.11300
H1312       H  0.68660978  0.09495413  0.23330403     0.10500
H1313       H  0.77454677  0.18670137  0.22452040     0.10500
H1314       H  0.78359737  0.15864405  0.20777228     0.11000
H1315       H  0.70452463  0.22538041  0.24560074     0.11100
H1316       H  0.70335341  0.26159711  0.26130378     0.11000
H1317       H  0.73100722  0.20611522  0.28585347     0.11200
H1318       H  0.73205139  0.17027931  0.27008050     0.10000
C1319       C  0.07382954  0.34663307  0.10728890    -0.03800
C1320       C  0.10137174  0.36301230  0.09996004    -0.09600
C1321       C  0.12734349  0.39413072  0.10308010    -0.17200
C1322       C  0.12614837  0.40930840  0.11353489     0.24900
C1323       C  0.09860012  0.39369807  0.12075973    -0.18900
C1324       C  0.07255829  0.36255978  0.11766085    -0.07800
C1325       C  0.15402487  0.43976909  0.11714642    -0.14300
C1326       C  0.17850714  0.46409075  0.12018535    -0.14000
C1327       C  0.20863625  0.49195528  0.12374364     0.24800
C1328       C  0.23110853  0.48544257  0.12963549    -0.19400
C1329       C  0.26078564  0.51239870  0.13288781    -0.07900
C1330       C  0.26837001  0.54627705  0.13026320    -0.03900
C1331       C  0.24543921  0.55252388  0.12439958    -0.09300
C1332       C  0.21579493  0.52550031  0.12115185    -0.16900
H1333       H  0.10318747  0.35151293  0.09192353     0.11300
H1334       H  0.14865015  0.40599816  0.09745487     0.10500
H1335       H  0.09752257  0.40522129  0.12889837     0.10500
H1336       H  0.05175923  0.35068305  0.12351017     0.11000
H1337       H  0.22575563  0.45950515  0.13166542     0.11100
H1338       H  0.27778592  0.50666286  0.13741573     0.11000
H1339       H  0.25042053  0.57826334  0.12225222     0.11200
H1340       H  0.19854367  0.53076136  0.11657349     0.10000
C1341       C  0.80047109  0.11636406  0.17477155    -0.03800
C1342       C  0.82351349  0.15019102  0.17714348    -0.09600
C1343       C  0.84841492  0.16918473  0.16912812    -0.17200
C1344       C  0.85061277  0.15468917  0.15865152     0.24900
C1345       C  0.82800679  0.12102860  0.15622678    -0.18900
C1346       C  0.80309104  0.10194015  0.16423430    -0.07800
C1347       C  0.87587680  0.17450646  0.15034067    -0.14300
C1348       C  0.89687118  0.19100264  0.14329624    -0.14000
C1349       C  0.92166491  0.20988239  0.13471927     0.24800
C1350       C  0.92152241  0.19508316  0.12403117    -0.19400
C1351       C  0.94600941  0.21289937  0.11574681    -0.07900
C1352       C  0.97099649  0.24583438  0.11806008    -0.03900
C1353       C  0.97062599  0.26070811  0.12879007    -0.09300
C1354       C  0.94612608  0.24278248  0.13707069    -0.16900
H1355       H  0.82227531  0.16208899  0.18516475     0.11300
H1356       H  0.86585053  0.19523557  0.17107424     0.10500
H1357       H  0.82953464  0.10960020  0.14812450     0.10500
H1358       H  0.78577223  0.07601594  0.16211734     0.11000
H1359       H  0.90262099  0.16962181  0.12214068     0.11100
H1360       H  0.94550950  0.20071624  0.10758932     0.11000
H1361       H  0.98950115  0.28598064  0.13088013     0.11200
H1362       H  0.94642176  0.25445273  0.14533122     0.10000
C1363       C  0.04865889  0.10920043  0.02079334    -0.03800
C1364       C  0.04114657  0.09782514  0.03247869    -0.09600
C1365       C  0.04180474  0.11983486  0.04113523    -0.17200
C1366       C  0.04994645  0.15351449  0.03827859     0.24900
C1367       C  0.05800541  0.16533863  0.02673334    -0.18900
C1368       C  0.05740407  0.14334887  0.01803208    -0.07800
C1369       C  0.04846208  0.17524679  0.04714780    -0.14300
C1370       C  0.04534989  0.19186507  0.05476656    -0.14000
C1371       C  0.04012771  0.21035800  0.06398551     0.24800
C1372       C  0.06310459  0.24412087  0.06605091    -0.19400
C1373       C  0.05819809  0.26188052  0.07511709    -0.07900
C1374       C  0.03024533  0.24603362  0.08229671    -0.03900
C1375       C  0.00702717  0.21220406  0.08002067    -0.09300
C1376       C  0.01199449  0.19451378  0.07093352    -0.16900
H1377       H  0.03439240  0.07177862  0.03494716     0.11300
H1378       H  0.03547548  0.11041172  0.05004131     0.10500
H1379       H  0.06428527  0.19138117  0.02442932     0.10500
H1380       H  0.06335866  0.15297372  0.00914209     0.11000
H1381       H  0.08493192  0.25665430  0.06070988     0.11100
H1382       H  0.07657997  0.28786761  0.07659581     0.11000
H1383       H  0.98523540  0.19921206  0.08534664     0.11200
H1384       H  0.99400180  0.16838211  0.06938309     0.10000
C1385       C  0.46977734  0.37154485  0.18579647    -0.03800
C1386       C  0.47923525  0.39703787  0.19424986    -0.09600
C1387       C  0.48219228  0.42899249  0.19139052    -0.17200
C1388       C  0.47595739  0.43596670  0.18004662     0.24900
C1389       C  0.46652714  0.41079823  0.17159383    -0.18900
C1390       C  0.46342631  0.37885405  0.17443217    -0.07800
C1391       C  0.47752001  0.46818212  0.17713322    -0.14300
C1392       C  0.47538823  0.49299051  0.17412371    -0.14000
C1393       C  0.46750503  0.51850232  0.16982866     0.24800
C1394       C  0.43994370  0.50815307  0.16304064    -0.19400
C1395       C  0.43074431  0.53184376  0.15909319    -0.07900
C1396       C  0.44904037  0.56650424  0.16185716    -0.03900
C1397       C  0.47706676  0.57689399  0.16857412    -0.09300
C1398       C  0.48621328  0.55295986  0.17255900    -0.16900
H1399       H  0.48406517  0.39222392  0.20309542     0.11300
H1400       H  0.48910937  0.44814819  0.19804203     0.10500
H1401       H  0.46130680  0.41577161  0.16281269     0.10500
H1402       H  0.45607147  0.35991003  0.16769915     0.11000
H1403       H  0.42529908  0.48156965  0.16087903     0.11100
H1404       H  0.40912479  0.52285243  0.15391112     0.11000
H1405       H  0.49166417  0.60335643  0.17086091     0.11200
H1406       H  0.50760712  0.56125248  0.17783117     0.10000
C1407       C  0.48480915  0.29343685  0.21305933    -0.03800
C1408       C  0.49761476  0.31864213  0.22160029    -0.09600
C1409       C  0.50948025  0.31252118  0.23199935    -0.17200
C1410       C  0.50873287  0.28118589  0.23402819     0.24900
C1411       C  0.49543136  0.25566071  0.22570806    -0.18900
C1412       C  0.48348190  0.26167670  0.21531134    -0.07800
C1413       C  0.52393953  0.27641552  0.24421479    -0.14300
C1414       C  0.53969160  0.27516618  0.25227347    -0.14000
C1415       C  0.56197378  0.27717485  0.26115906     0.24800
C1416       C  0.59326262  0.28399314  0.25790288    -0.19400
C1417       C  0.61613267  0.28899829  0.26640104    -0.07900
C1418       C  0.60806400  0.28729009  0.27834011    -0.03900
C1419       C  0.57623431  0.27941775  0.28154549    -0.09300
C1420       C  0.55337056  0.27451675  0.27299423    -0.16900
H1421       H  0.49889072  0.34326709  0.22019656     0.11300
H1422       H  0.51989110  0.33252942  0.23835836     0.10500
H1423       H  0.49490378  0.23137656  0.22714252     0.10500
H1424       H  0.47374768  0.24161491  0.20895970     0.11000
H1425       H  0.60022779  0.28622046  0.24877117     0.11100
H1426       H  0.64033378  0.29487798  0.26358914     0.11000
H1427       H  0.56925147  0.27801598  0.29063942     0.11200
H1428       H  0.52924560  0.26941519  0.27561251     0.10000
C1429       C  0.35132166  0.76860231  0.12672404    -0.03800
C1430       C  0.37134409  0.80414215  0.12673060    -0.09600
C1431       C  0.35878985  0.82600876  0.12392747    -0.17200
C1432       C  0.32613161  0.81273400  0.12108069     0.24900
C1433       C  0.30615019  0.77746684  0.12078445    -0.18900
C1434       C  0.31865327  0.75550998  0.12355369    -0.07800
C1435       C  0.31315103  0.83554882  0.11889027    -0.14300
C1436       C  0.30449189  0.85673497  0.11756350    -0.14000
C1437       C  0.29741727  0.88456543  0.11648994     0.24800
C1438       C  0.30943746  0.91034792  0.12474340    -0.19400
C1439       C  0.30486999  0.93883758  0.12337730    -0.07900
C1440       C  0.28817660  0.94193642  0.11370733    -0.03900
C1441       C  0.27539462  0.91541355  0.10560476    -0.09300
C1442       C  0.28010723  0.88693917  0.10697830    -0.16900
H1443       H  0.39656335  0.81510315  0.12910048     0.11300
H1444       H  0.37444401  0.85331549  0.12417574     0.10500
H1445       H  0.28081734  0.76694469  0.11860496     0.10500
H1446       H  0.30250327  0.72830420  0.12347863     0.11000
H1447       H  0.32288911  0.90873145  0.13213467     0.11100
H1448       H  0.31481226  0.95862165  0.12982191     0.11000
H1449       H  0.26239073  0.91697295  0.09807209     0.11200
H1450       H  0.27077427  0.86712045  0.10052575     0.10000
C1451       C  0.31778707  0.05931347  0.12463510    -0.03800
C1452       C  0.31389079  0.08857037  0.12360091    -0.09600
C1453       C  0.33111604  0.11651585  0.13074338    -0.17200
C1454       C  0.35251779  0.11570081  0.13898981     0.24900
C1455       C  0.35660927  0.08676051  0.14009789    -0.18900
C1456       C  0.33936885  0.05874164  0.13298241    -0.07800
C1457       C  0.37009016  0.14451930  0.14633933    -0.14300
C1458       C  0.38444116  0.16866165  0.15253129    -0.14000
C1459       C  0.40126952  0.19704547  0.16012330     0.24800
C1460       C  0.41464644  0.19263966  0.17042151    -0.19400
C1461       C  0.43056739  0.21987490  0.17793761    -0.07900
C1462       C  0.43331104  0.25201428  0.17527645    -0.03900
C1463       C  0.42001450  0.25630609  0.16483372    -0.09300
C1464       C  0.40405242  0.22894250  0.15731932    -0.16900
H1465       H  0.29745860  0.08987832  0.11730593     0.11300
H1466       H  0.32771859  0.13877181  0.12983750     0.10500
H1467       H  0.37309370  0.08583018  0.14646412     0.10500
H1468       H  0.34302109  0.03669134  0.13401877     0.11000
H1469       H  0.41262668  0.16806879  0.17268024     0.11100
H1470       H  0.44051748  0.21560860  0.18587817     0.11000
H1471       H  0.42163609  0.28065109  0.16251785     0.11200
H1472       H  0.39373813  0.23261035  0.14936334     0.10000
C1473       C  0.11330888  0.00803921  0.02731294    -0.03800
C1474       C  0.10281888  0.01153855  0.03850849    -0.09600
C1475       C  0.12057317  0.01237487  0.04835767    -0.17200
C1476       C  0.14888784  0.00959791  0.04713779     0.24900
C1477       C  0.15953837  0.00624441  0.03605871    -0.18900
C1478       C  0.14194563  0.00548538  0.02622231    -0.07800
C1479       C  0.16689720  0.00951189  0.05719988    -0.14300
C1480       C  0.18286869  0.00872241  0.06524371    -0.14000
C1481       C  0.20276143  0.00730128  0.07446284     0.24800
C1482       C  0.20793946  0.97906419  0.07560138    -0.19400
C1483       C  0.22779958  0.97788750  0.08439541    -0.07900
C1484       C  0.24282948  0.00503695  0.09217491    -0.03900
C1485       C  0.23747825  0.03333898  0.09093799    -0.09300
C1486       C  0.21753534  0.03440635  0.08214357    -0.16900
H1487       H  0.08099423  0.01372856  0.03966033     0.11300
H1488       H  0.11214956  0.01501862  0.05691099     0.10500
H1489       H  0.18140312  0.00403759  0.03502192     0.10500
H1490       H  0.15074785  0.00270672  0.01776461     0.11000
H1491       H  0.19671721  0.95799965  0.06966480     0.11100
H1492       H  0.23143338  0.95574750  0.08505979     0.11000
H1493       H  0.24860037  0.05463222  0.09677517     0.11200
H1494       H  0.21373565  0.05642300  0.08130956     0.10000
loop_ 
_geom_bond_atom_site_label_1 
_geom_bond_atom_site_label_2 
_geom_bond_distance 
_geom_bond_site_symmetry_2 
_ccdc_geom_bond_type 
C1            N2   1.358   1_545  A
C1            N6   1.360       .  A
C1         C1484   1.482       .  S
N2            C3   1.357       .  A
C3            N4   1.358   1_565  A
C3         C1440   1.480       .  S
N4            C5   1.358       .  A
C5            N6   1.360       .  A
C5         C1451   1.484       .  S
C7            N8   1.362       .  A
C7           N12   1.357       .  A
C7         C1407   1.485       .  S
N8            C9   1.362       .  A
C9           N10   1.360       .  A
C9         C1385   1.486       .  S
N10          C11   1.358       .  A
C11          N12   1.356       .  A
C11        C1462   1.483       .  S
C13          N14   1.358       .  A
C13          N18   1.357       .  A
C13        C1319   1.481       .  S
N14          C15   1.358       .  A
C15          N16   1.360       .  A
C15        C1374   1.484       .  S
N16          C17   1.360   1_455  A
C17          N18   1.357   1_655  A
C17        C1352   1.481       .  S
C19          N20   1.359       .  A
C19          N24   1.358       .  A
C19        C1286   1.483       .  S
N20          C21   1.359       .  A
C21          N22   1.358       .  A
C21        C1341   1.481       .  S
N22          C23   1.358       .  A
C23          N24   1.358       .  A
C23        C1297   1.481       .  S
C25          N26   1.359   1_455  A
C25          N30   1.359   1_455  A
C25        C1220   1.485       .  S
N26          C27   1.359       .  A
C27          N28   1.359       .  A
C27        C1231   1.486       .  S
N28          C29   1.360       .  A
C29          N30   1.360       .  A
C29        C1253   1.485       .  S
C31          N32   1.361       .  A
C31          N36   1.362       .  A
C31        C1165   1.490       .  S
N32          C33   1.360       .  A
C33          N34   1.359       .  A
C33        C1187   1.488       .  S
N34          C35   1.359       .  A
C35          N36   1.361       .  A
C35        C1242   1.488       .  S
Zr37         O38   2.439       .  S
Zr37         O39   2.430       .  S
Zr37         O40   2.418       .  S
Zr37         O43   2.417       .  S
Zr37         O45   2.375       .  S
Zr37         O46   2.378       .  S
Zr37         O47   2.405       .  S
Zr37         O48   2.401       .  S
O38          H94   0.990       .  S
O38         H102   0.990       .  S
O39          C59   1.284       .  A
O40          C61   1.282       .  A
O41         Zr51   2.437       .  S
O41          C60   1.286       .  A
O42         Zr50   2.430       .  S
O42          C61   1.285       .  A
O43          C60   1.283       .  A
O44         Zr52   2.428       .  S
O44          C59   1.284       .  A
O45         Zr50   2.381       .  S
O45         Zr52   2.371       .  S
O46         Zr51   2.383       .  S
O46         Zr52   2.374       .  S
O46          H81   0.966       .  S
O47         Zr50   2.392       .  S
O47         Zr67   2.404       .  S
O47          H84   0.967       .  S
O48         Zr51   2.387       .  S
O48         Zr67   2.404       .  S
Zr49         O74   2.442       .  S
Zr49         O68   2.430       .  S
Zr49         O76   2.451       .  S
Zr49         O64   2.439       .  S
Zr49         O55   2.402       .  S
Zr49         O56   2.408       .  S
Zr49         O57   2.382       .  S
Zr49         O58   2.382       .  S
Zr50         O69   2.435       .  S
Zr50         O62   2.436       .  S
Zr50         O63   2.416       .  S
Zr50         O56   2.400       .  S
Zr50         O57   2.387       .  S
Zr51         O53   2.434       .  S
Zr51         O75   2.436       .  S
Zr51         O77   2.415       .  S
Zr51         O55   2.396       .  S
Zr51         O58   2.388       .  S
Zr52         O78   2.436       .  S
Zr52         O79   2.434       .  S
Zr52         O54   2.437       .  S
Zr52         O55   2.396       .  S
Zr52         O56   2.395       .  S
O53          H90   0.990       .  S
O54          H85   0.990       .  S
O54          H99   0.990       .  S
O56          H82   0.967       .  S
O57         Zr67   2.368       .  S
O58         Zr67   2.373       .  S
O58          H83   0.965       .  S
C59        C1209   1.484       .  S
C60        C1429   1.482       .  S
C61        C1330   1.480       .  S
O62          H98   0.990       .  S
O63          C65   1.283       .  A
O64          C65   1.286       .  A
C65        C1396   1.482       .  S
O66         Zr67   2.439       .  S
O66          H95   0.990       .  S
Zr67         O70   2.437       .  S
Zr67         O71   2.439       .  S
Zr67         O72   2.436       .  S
O68          C73   1.285       .  A
O69          H86   0.990       .  S
O69         H101   0.990       .  S
O70          H87   0.990       .  S
O71          H91   0.990       .  S
O71         H100   0.990       .  S
O72          C73   1.285       .  A
C73        C1176   1.489       .  S
O74          H93   0.990       .  S
O74          H97   0.990       .  S
O75          H89   0.990       .  S
O75          H96   0.990       .  S
O76          C80   1.288       .  A
O77          C80   1.283       .  A
O78          H88   0.990       .  S
O79          H92   0.990       .  S
C80        C1275   1.488       .  S
Zr103       O104   2.442       .  S
Zr103       O105   2.440       .  S
Zr103       O106   2.434       .  S
Zr103       O109   2.419       .  S
Zr103       O111   2.377       .  S
Zr103       O112   2.383       .  S
Zr103       O113   2.408       .  S
Zr103       O114   2.401       .  S
O104        H160   0.990       .  S
O104        H168   0.990       .  S
O105        C125   1.285       .  A
O106        C127   1.284       .  A
O107       Zr117   2.435       .  S
O107        C126   1.286       .  A
O108       Zr116   2.434       .  S
O108        C127   1.284       .  A
O109        C126   1.283       .  A
O110       Zr118   2.431       .  S
O110        C125   1.284       .  A
O111       Zr116   2.397       .  S
O111       Zr118   2.378       .  S
O112       Zr117   2.392       .  S
O112       Zr118   2.379       .  S
O112        H147   0.965       .  S
O113       Zr116   2.404       .  S
O113       Zr133   2.398       .  S
O113        H150   0.964       .  S
O114       Zr117   2.394       .  S
O114       Zr133   2.394       .  S
Zr115       O140   2.442       .  S
Zr115       O134   2.425       .  S
Zr115       O142   2.411       .  S
Zr115       O130   2.413       .  S
Zr115       O121   2.397       .  S
Zr115       O122   2.401       .  S
Zr115       O123   2.375       .  S
Zr115       O124   2.376       .  S
Zr116       O135   2.437       .  S
Zr116       O128   2.435       .  S
Zr116       O129   2.441       .  S
Zr116       O122   2.395       .  S
Zr116       O123   2.389       .  S
Zr117       O119   2.435       .  S
Zr117       O141   2.435       .  S
Zr117       O143   2.445       .  S
Zr117       O121   2.389       .  S
Zr117       O124   2.385       .  S
Zr118       O144   2.437       .  S
Zr118       O145   2.437       .  S
Zr118       O120   2.436       .  S
Zr118       O121   2.401       .  S
Zr118       O122   2.403       .  S
O119        H156   0.990       .  S
O120        H151   0.990       .  S
O120        H165   0.990       .  S
O122        H148   0.966       .  S
O123       Zr133   2.370       .  S
O124       Zr133   2.374       .  S
O124        H149   0.964       .  S
C125       C1132   1.490       .  S
C126       C1143   1.483       .  S
C127       C1099   1.485       .  S
O128        H164   0.990       .  S
O129        C131   1.287       .  A
O130        C131   1.282       .  A
C131       C1264   1.483       .  S
O132       Zr133   2.439       .  S
O132        H161   0.990       .  S
Zr133       O136   2.439       .  S
Zr133       O137   2.440       .  S
Zr133       O138   2.431       .  S
O134        C139   1.283       .  A
O135        H152   0.990       .  S
O135        H167   0.990       .  S
O136        H153   0.990       .  S
O137        H157   0.990       .  S
O137        H166   0.990       .  S
O138        C139   1.284       .  A
C139       C1308   1.483       .  S
O140        H159   0.990       .  S
O140        H163   0.990       .  S
O141        H155   0.990       .  S
O141        H162   0.990       .  S
O142        C146   1.282       .  A
O143        C146   1.287       .  A
O144        H154   0.990       .  S
O145        H158   0.990       .  S
C146       C1418   1.483       .  S
C169        N170   1.358       .  A
C169        N174   1.361       .  A
C169       C1033   1.485       .  S
N170        C171   1.357       .  A
C171        N172   1.357       .  A
C171       C1077   1.483       .  S
N172        C173   1.359       .  A
C173        N174   1.362       .  A
C173       C1055   1.485       .  S
C175        N176   1.361       .  A
C175        N180   1.362       .  A
C175       C1011   1.489       .  S
N176        C177   1.359       .  A
C177        N178   1.357       .  A
C177       C1154   1.486       .  S
N178        C179   1.358       .  A
C179        N180   1.361       .  A
C179       C1066   1.485       .  S
C181        N182   1.359       .  A
C181        N186   1.360       .  A
C181        C989   1.482       .  S
N182        C183   1.359       .  A
C183        N184   1.358       .  A
C183        C967   1.480       .  S
N184        C185   1.357       .  A
C185        N186   1.359       .  A
C185        C956   1.484       .  S
C187        N188   1.358       .  A
C187        N192   1.358       .  A
C187       C1121   1.480       .  S
N188        C189   1.357       .  A
C189        N190   1.357       .  A
C189        C923   1.479       .  S
N190        C191   1.358       .  A
C191        N192   1.359       .  A
C191        C978   1.480       .  S
C193        N194   1.357       .  A
C193        N198   1.362       .  A
C193        C912   1.481       .  S
N194        C195   1.355       .  A
C195        N196   1.356       .  A
C195        C890   1.479       .  S
N196        C197   1.358       .  A
C197        N198   1.362       .  A
C197        C857   1.482       .  S
C199        N200   1.360   1_655  A
C199        N204   1.358   1_655  A
C199       C1110   1.484       .  S
N200        C201   1.360       .  A
C201        N202   1.358       .  A
C201        C835   1.481       .  S
N202        C203   1.357       .  A
C203        N204   1.358       .  A
C203        C879   1.481       .  S
Zr205       O206   2.439       .  S
Zr205       O207   2.425       .  S
Zr205       O208   2.445       .  S
Zr205       O211   2.437       .  S
Zr205       O213   2.379       .  S
Zr205       O214   2.383   1_655  S
Zr205       O215   2.403   1_665  S
Zr205       O216   2.402   1_655  S
O206        H262   0.990       .  S
O206        H270   0.990       .  S
O207        C227   1.284       .  A
O208        C229   1.287       .  A
O209       Zr219   2.417       .  S
O209        C228   1.284       .  A
O210       Zr218   2.423       .  S
O210        C229   1.283   1_545  A
O211        C228   1.287   1_655  A
O212       Zr220   2.425   1_655  S
O212        C227   1.283       .  A
O213       Zr218   2.386   1_565  S
O213       Zr220   2.377   1_655  S
O214       Zr219   2.381       .  S
O214       Zr220   2.373       .  S
O214        H249   0.966       .  S
O215       Zr218   2.390   1_455  S
O215       Zr235   2.400       .  S
O215        H252   0.966   1_455  S
O216       Zr219   2.391       .  S
O216       Zr235   2.399   1_565  S
Zr217       O242   2.441       .  S
Zr217       O236   2.425       .  S
Zr217       O244   2.448       .  S
Zr217       O232   2.436       .  S
Zr217       O223   2.400       .  S
Zr217       O224   2.405       .  S
Zr217       O225   2.382       .  S
Zr217       O226   2.379       .  S
Zr218       O237   2.438       .  S
Zr218       O230   2.433       .  S
Zr218       O231   2.421   1_655  S
Zr218       O224   2.396   1_655  S
Zr218       O225   2.383   1_655  S
Zr219       O221   2.435       .  S
Zr219       O243   2.437       .  S
Zr219       O245   2.422   1_565  S
Zr219       O223   2.387   1_565  S
Zr219       O226   2.384   1_565  S
Zr220       O246   2.436       .  S
Zr220       O247   2.437   1_565  S
Zr220       O222   2.437   1_455  S
Zr220       O223   2.397   1_565  S
Zr220       O224   2.391   1_565  S
O221        H258   0.990       .  S
O222        H253   0.990       .  S
O222        H267   0.990       .  S
O224        H250   0.966       .  S
O225       Zr235   2.372       .  S
O226       Zr235   2.370       .  S
O226        H251   0.966       .  S
C227        C934   1.481       .  S
C228        C868   1.483       .  S
C229       C1044   1.488       .  S
O230        H266   0.990       .  S
O231        C233   1.284       .  A
O232        C233   1.286       .  A
C233        C846   1.482       .  S
O234       Zr235   2.438       .  S
O234        H263   0.990       .  S
Zr235       O238   2.435       .  S
Zr235       O239   2.440       .  S
Zr235       O240   2.437       .  S
O236        C241   1.284       .  A
O237        H254   0.990       .  S
O237        H269   0.990       .  S
O238        H255   0.990       .  S
O239        H259   0.990       .  S
O239        H268   0.990       .  S
O240        C241   1.286       .  A
C241        C945   1.486       .  S
O242        H261   0.990       .  S
O242        H265   0.990       .  S
O243        H257   0.990       .  S
O243        H264   0.990       .  S
O244        C248   1.288       .  A
O245        C248   1.284       .  A
O246        H256   0.990       .  S
O247        H260   0.990       .  S
C248       C1022   1.488       .  S
C271        N272   1.360       .  A
C271        N276   1.360       .  A
C271        C813   1.482       .  S
N272        C273   1.358       .  A
C273        N274   1.358       .  A
C273        C780   1.479       .  S
N274        C275   1.357       .  A
C275        N276   1.360       .  A
C275        C802   1.484       .  S
C277        N278   1.359       .  A
C277        N282   1.362   1_545  A
C277        C747   1.487       .  S
N278        C279   1.358       .  A
C279        N280   1.359       .  A
C279        C725   1.483       .  S
N280        C281   1.360   1_545  A
C281        N282   1.362       .  A
C281        C791   1.488       .  S
C283        N284   1.358       .  A
C283        N288   1.358       .  A
C283        C670   1.483   1_565  S
N284        C285   1.359       .  A
C285        N286   1.359       .  A
C285        C681   1.480       .  S
N286        C287   1.359       .  A
C287        N288   1.358       .  A
C287        C703   1.481       .  S
C289        N290   1.358       .  A
C289        N294   1.358       .  A
C289        C626   1.478   1_455  S
N290        C291   1.358       .  A
C291        N292   1.358       .  A
C291        C692   1.480       .  S
N292        C293   1.357       .  A
C293        N294   1.357       .  A
C293        C637   1.479       .  S
C295        N296   1.361       .  A
C295        N300   1.361       .  A
C295        C549   1.489       .  S
N296        C297   1.360       .  A
C297        N298   1.359       .  A
C297        C571   1.488       .  S
N298        C299   1.360       .  A
C299        N300   1.361       .  A
C299        C593   1.487       .  S
C301        N302   1.361       .  A
C301        N306   1.358       .  A
C301        C505   1.484       .  S
N302        C303   1.362       .  A
C303        N304   1.361       .  A
C303        C582   1.489       .  S
N304        C305   1.360       .  A
C305        N306   1.358       .  A
C305        C538   1.486       .  S
Zr307       O308   2.438       .  S
Zr307       O309   2.431       .  S
Zr307       O310   2.445       .  S
Zr307       O313   2.435       .  S
Zr307       O315   2.382       .  S
Zr307       O316   2.385       .  S
Zr307       O317   2.407       .  S
Zr307       O318   2.404       .  S
O308        H364   0.990       .  S
O308        H372   0.990       .  S
O309        C329   1.284       .  A
O310        C331   1.286       .  A
O311       Zr321   2.414       .  S
O311        C330   1.282       .  A
O312       Zr320   2.417       .  S
O312        C331   1.282       .  A
O313        C330   1.286       .  A
O314       Zr322   2.434       .  S
O314        C329   1.285       .  A
O315       Zr320   2.393       .  S
O315       Zr322   2.377       .  S
O316       Zr321   2.388       .  S
O316       Zr322   2.374       .  S
O316        H351   0.967       .  S
O317       Zr320   2.402       .  S
O317       Zr337   2.400       .  S
O317        H354   0.966       .  S
O318       Zr321   2.394       .  S
O318       Zr337   2.399       .  S
Zr319       O344   2.440       .  S
Zr319       O338   2.417       .  S
Zr319       O346   2.416       .  S
Zr319       O334   2.423       .  S
Zr319       O325   2.399       .  S
Zr319       O326   2.399       .  S
Zr319       O327   2.372       .  S
Zr319       O328   2.377       .  S
Zr320       O339   2.437       .  S
Zr320       O332   2.434       .  S
Zr320       O333   2.430       .  S
Zr320       O326   2.392       .  S
Zr320       O327   2.383       .  S
Zr321       O323   2.435       .  S
Zr321       O345   2.438       .  S
Zr321       O347   2.428       .  S
Zr321       O325   2.388       .  S
Zr321       O328   2.376       .  S
Zr322       O348   2.435       .  S
Zr322       O349   2.436       .  S
Zr322       O324   2.436       .  S
Zr322       O325   2.400       .  S
Zr322       O326   2.402       .  S
O323        H360   0.990       .  S
O324        H355   0.990       .  S
O324        H369   0.990       .  S
O326        H352   0.966       .  S
O327       Zr337   2.371       .  S
O328       Zr337   2.372       .  S
O328        H353   0.966       .  S
C329        C560   1.487       .  S
C330        C769   1.482       .  S
C331        C659   1.482       .  S
O332        H368   0.990       .  S
O333        C335   1.285       .  A
O334        C335   1.284       .  A
C335        C736   1.483       .  S
O336       Zr337   2.439       .  S
O336        H365   0.990       .  S
Zr337       O340   2.437       .  S
Zr337       O341   2.440       .  S
Zr337       O342   2.437       .  S
O338        C343   1.282       .  A
O339        H356   0.990       .  S
O339        H371   0.990       .  S
O340        H357   0.990       .  S
O341        H361   0.990       .  S
O341        H370   0.990       .  S
O342        C343   1.286       .  A
C343        C516   1.484       .  S
O344        H363   0.990       .  S
O344        H367   0.990       .  S
O345        H359   0.990       .  S
O345        H366   0.990       .  S
O346        C350   1.282       .  A
O347        C350   1.285       .  A
O348        H358   0.990       .  S
O349        H362   0.990       .  S
C350        C615   1.478       .  S
Zr373       O374   2.441       .  S
Zr373       O375   2.424   1_455  S
Zr373       O376   2.421   1_545  S
Zr373       O379   2.431       .  S
Zr373       O381   2.380   1_445  S
Zr373       O382   2.378       .  S
Zr373       O383   2.404   1_545  S
Zr373       O384   2.395       .  S
O374        H430   0.990       .  S
O374        H438   0.990   1_545  S
O375        C395   1.283   1_545  A
O376        C397   1.282       .  A
O377       Zr387   2.437       .  S
O377        C396   1.286       .  A
O378       Zr386   2.439       .  S
O378        C397   1.286       .  A
O379        C396   1.286       .  A
O380       Zr388   2.428       .  S
O380        C395   1.284       .  A
O381       Zr386   2.393   1_655  S
O381       Zr388   2.376       .  S
O382       Zr387   2.389       .  S
O382       Zr388   2.378   1_445  S
O382        H417   0.968       .  S
O383       Zr386   2.401       .  S
O383       Zr403   2.395   1_565  S
O383        H420   0.967       .  S
O384       Zr387   2.392       .  S
O384       Zr403   2.396       .  S
Zr385       O410   2.444   1_445  S
Zr385       O404   2.429       .  S
Zr385       O412   2.423       .  S
Zr385       O400   2.424   1_445  S
Zr385       O391   2.399   1_554  S
Zr385       O392   2.402   1_444  S
Zr385       O393   2.377   1_544  S
Zr385       O394   2.379   1_554  S
Zr386       O405   2.435       .  S
Zr386       O398   2.435   1_455  S
Zr386       O399   2.442   1_456  S
Zr386       O392   2.397   1_455  S
Zr386       O393   2.387       .  S
Zr387       O389   2.435       .  S
Zr387       O411   2.439       .  S
Zr387       O413   2.431   1_556  S
Zr387       O391   2.394       .  S
Zr387       O394   2.390       .  S
Zr388       O414   2.435   1_565  S
Zr388       O415   2.436       .  S
Zr388       O390   2.436       .  S
Zr388       O391   2.394   1_665  S
Zr388       O392   2.397       .  S
O389        H426   0.990       .  S
O390        H421   0.990       .  S
O390        H435   0.990       .  S
O392        H418   0.965       .  S
O393       Zr403   2.372   1_565  S
O394       Zr403   2.376       .  S
O394        H419   0.968   1_556  S
C395        C758   1.482       .  S
C396        C604   1.489       .  S
C397        C648   1.481       .  S
O398        H434   0.990       .  S
O399        C401   1.287       .  A
O400        C401   1.284       .  A
C401       C1198   1.487       .  S
O402       Zr403   2.439       .  S
O402        H431   0.991       .  S
Zr403       O406   2.437   1_545  S
Zr403       O407   2.440       .  S
Zr403       O408   2.423   1_556  S
O404        C409   1.284       .  A
O405        H422   0.990       .  S
O405        H437   0.990       .  S
O406        H423   0.990       .  S
O407        H427   0.990       .  S
O407        H436   0.990       .  S
O408        C409   1.283       .  A
C409       C1473   1.483       .  S
O410        H429   0.990   1_565  S
O410        H433   0.990       .  S
O411        H425   0.990       .  S
O411        H432   0.990       .  S
O412        C416   1.284       .  A
O413        C416   1.286       .  A
O414        H424   0.990       .  S
O415        H428   0.990       .  S
C416       C1363   1.483       .  S
Zr439       O440   2.439       .  S
Zr439       O441   2.433       .  S
Zr439       O442   2.417       .  S
Zr439       O445   2.413       .  S
Zr439       O447   2.376       .  S
Zr439       O448   2.378       .  S
Zr439       O449   2.402       .  S
Zr439       O450   2.400       .  S
O440        H496   0.990       .  S
O440        H504   0.990       .  S
O441        C461   1.285       .  A
O442        C463   1.283       .  A
O443       Zr453   2.456       .  S
O443        C462   1.290       .  A
O444       Zr452   2.433       .  S
O444        C463   1.285       .  A
O445        C462   1.283       .  A
O446       Zr454   2.419       .  S
O446        C461   1.282       .  A
O447       Zr452   2.391       .  S
O447       Zr454   2.376       .  S
O448       Zr453   2.389       .  S
O448       Zr454   2.375       .  S
O448        H483   0.967       .  S
O449       Zr452   2.399       .  S
O449       Zr469   2.398       .  S
O449        H486   0.965       .  S
O450       Zr453   2.388       .  S
O450       Zr469   2.397       .  S
Zr451       O476   2.440       .  S
Zr451       O470   2.420       .  S
Zr451       O478   2.424       .  S
Zr451       O466   2.426       .  S
Zr451       O457   2.395       .  S
Zr451       O458   2.399       .  S
Zr451       O459   2.372       .  S
Zr451       O460   2.384       .  S
Zr452       O471   2.435       .  S
Zr452       O464   2.435       .  S
Zr452       O465   2.438       .  S
Zr452       O458   2.395       .  S
Zr452       O459   2.381       .  S
Zr453       O455   2.435       .  S
Zr453       O477   2.437       .  S
Zr453       O479   2.440       .  S
Zr453       O457   2.394       .  S
Zr453       O460   2.393       .  S
Zr454       O480   2.437       .  S
Zr454       O481   2.437       .  S
Zr454       O456   2.437       .  S
Zr454       O457   2.392       .  S
Zr454       O458   2.396       .  S
O455        H492   0.990       .  S
O456        H487   0.990       .  S
O456        H501   0.990       .  S
O458        H484   0.966       .  S
O459       Zr469   2.371       .  S
O460       Zr469   2.372       .  S
O460        H485   0.965       .  S
C461        C714   1.482       .  S
C462        C527   1.488       .  S
C463        C824   1.477       .  S
O464        H500   0.990       .  S
O465        C467   1.286       .  A
O466        C467   1.285       .  A
C467       C1088   1.485       .  S
O468       Zr469   2.440       .  S
O468        H497   0.990       .  S
Zr469       O472   2.437       .  S
Zr469       O473   2.439       .  S
Zr469       O474   2.433       .  S
O470        C475   1.283       .  A
O471        H488   0.990       .  S
O471        H503   0.990       .  S
O472        H489   0.990       .  S
O473        H493   0.990       .  S
O473        H502   0.990       .  S
O474        C475   1.285       .  A
C475       C1000   1.482       .  S
O476        H495   0.990       .  S
O476        H499   0.990       .  S
O477        H491   0.990       .  S
O477        H498   0.990       .  S
O478        C482   1.285       .  A
O479        C482   1.287       .  A
O480        H490   0.990       .  S
O481        H494   0.990       .  S
C482        C901   1.485       .  S
C505        C506   1.407       .  A
C505        C510   1.409       .  A
C506        C507   1.399   1_455  A
C506        H519   1.083       .  S
C507        C508   1.400       .  A
C507        H520   1.084       .  S
C508        C509   1.399       .  A
C508        C511   1.441       .  S
C509        C510   1.399   1_655  A
C509        H521   1.084       .  S
C510        H522   1.083       .  S
C511        C512   1.206       .  T
C512        C513   1.440       .  S
C513        C514   1.400       .  A
C513        C518   1.398       .  A
C514        C515   1.400       .  A
C514        H523   1.083       .  S
C515        C516   1.408       .  A
C515        H524   1.083       .  S
C516        C517   1.409       .  A
C517        C518   1.396       .  A
C517        H525   1.083       .  S
C518        H526   1.084       .  S
C527        C528   1.408       .  A
C527        C532   1.411       .  A
C528        C529   1.402       .  A
C528        H541   1.083       .  S
C529        C530   1.401       .  A
C529        H542   1.083       .  S
C530        C531   1.398       .  A
C530        C533   1.442       .  S
C531        C532   1.397       .  A
C531        H543   1.084       .  S
C532        H544   1.083       .  S
C533        C534   1.207       .  T
C534        C535   1.442       .  S
C535        C536   1.400       .  A
C535        C540   1.400       .  A
C536        C537   1.398       .  A
C536        H545   1.084       .  S
C537        C538   1.407       .  A
C537        H546   1.083       .  S
C538        C539   1.410       .  A
C539        C540   1.400       .  A
C539        H547   1.083       .  S
C540        H548   1.083       .  S
C549        C550   1.409       .  A
C549        C554   1.409       .  A
C550        C551   1.402       .  A
C550        H563   1.083       .  S
C551        C552   1.401       .  A
C551        H564   1.083       .  S
C552        C553   1.399       .  A
C552        C555   1.445       .  S
C553        C554   1.399       .  A
C553        H565   1.083       .  S
C554        H566   1.083       .  S
C555        C556   1.209       .  T
C556        C557   1.445       .  S
C557        C558   1.400       .  A
C557        C562   1.400       .  A
C558        C559   1.400       .  A
C558        H567   1.084       .  S
C559        C560   1.409       .  A
C559        H568   1.083       .  S
C560        C561   1.408       .  A
C561        C562   1.401       .  A
C561        H569   1.083       .  S
C562        H570   1.083       .  S
C571        C572   1.409       .  A
C571        C576   1.409       .  A
C572        C573   1.401       .  A
C572        H585   1.083       .  S
C573        C574   1.400       .  A
C573        H586   1.083       .  S
C574        C575   1.400       .  A
C574        C577   1.445       .  S
C575        C576   1.400       .  A
C575        H587   1.084       .  S
C576        H588   1.083       .  S
C577        C578   1.209       .  T
C578        C579   1.445       .  S
C579        C580   1.400       .  A
C579        C584   1.400       .  A
C580        C581   1.400       .  A
C580        H589   1.083       .  S
C581        C582   1.408       .  A
C581        H590   1.083       .  S
C582        C583   1.410       .  A
C583        C584   1.401       .  A
C583        H591   1.083       .  S
C584        H592   1.083       .  S
C593        C594   1.408       .  A
C593        C598   1.409       .  A
C594        C595   1.400       .  A
C594        H607   1.083       .  S
C595        C596   1.400       .  A
C595        H608   1.083       .  S
C596        C597   1.400       .  A
C596        C599   1.443       .  S
C597        C598   1.400       .  A
C597        H609   1.084       .  S
C598        H610   1.083       .  S
C599        C600   1.208       .  T
C600        C601   1.443       .  S
C601        C602   1.400       .  A
C601        C606   1.399       .  A
C602        C603   1.402       .  A
C602        H611   1.083       .  S
C603        C604   1.410       .  A
C603        H612   1.083       .  S
C604        C605   1.409       .  A
C605        C606   1.398       .  A
C605        H613   1.083       .  S
C606        H614   1.084       .  S
C615        C616   1.409       .  A
C615        C620   1.406       .  A
C616        C617   1.397       .  A
C616        H629   1.083       .  S
C617        C618   1.398       .  A
C617        H630   1.083       .  S
C618        C619   1.398       .  A
C618        C621   1.433       .  S
C619        C620   1.394       .  A
C619        H631   1.084       .  S
C620        H632   1.083       .  S
C621        C622   1.202       .  T
C622        C623   1.433       .  S
C623        C624   1.398       .  A
C623        C628   1.398       .  A
C624        C625   1.396       .  A
C624        H633   1.084       .  S
C625        C626   1.407       .  A
C625        H634   1.083       .  S
C626        C627   1.407       .  A
C627        C628   1.396       .  A
C627        H635   1.083   1_655  S
C628        H636   1.084       .  S
C637        C638   1.408       .  A
C637        C642   1.407       .  A
C638        C639   1.398       .  A
C638        H651   1.083   1_455  S
C639        C640   1.399       .  A
C639        H652   1.083   1_455  S
C640        C641   1.399       .  A
C640        C643   1.437       .  S
C641        C642   1.396       .  A
C641        H653   1.084       .  S
C642        H654   1.083       .  S
C643        C644   1.204       .  T
C644        C645   1.437       .  S
C645        C646   1.397       .  A
C645        C650   1.400       .  A
C646        C647   1.395       .  A
C646        H655   1.084       .  S
C647        C648   1.409       .  A
C647        H656   1.083       .  S
C648        C649   1.407       .  A
C649        C650   1.400       .  A
C649        H657   1.083       .  S
C650        H658   1.083       .  S
C659        C660   1.408       .  A
C659        C664   1.408       .  A
C660        C661   1.395       .  A
C660        H673   1.083       .  S
C661        C662   1.398       .  A
C661        H674   1.084       .  S
C662        C663   1.401       .  A
C662        C665   1.441       .  S
C663        C664   1.402       .  A
C663        H675   1.083       .  S
C664        H676   1.083       .  S
C665        C666   1.207       .  T
C666        C667   1.441       .  S
C667        C668   1.400       .  A
C667        C672   1.399       .  A
C668        C669   1.399       .  A
C668        H677   1.083       .  S
C669        C670   1.408       .  A
C669        H678   1.083       .  S
C670        C671   1.408       .  A
C671        C672   1.398       .  A
C671        H679   1.083       .  S
C672        H680   1.083       .  S
C681        C682   1.408       .  A
C681        C686   1.408       .  A
C682        C683   1.397       .  A
C682        H695   1.083       .  S
C683        C684   1.399       .  A
C683        H696   1.084       .  S
C684        C685   1.398       .  A
C684        C687   1.435       .  S
C685        C686   1.396       .  A
C685        H697   1.084       .  S
C686        H698   1.083       .  S
C687        C688   1.203       .  T
C688        C689   1.435       .  S
C689        C690   1.398       .  A
C689        C694   1.398       .  A
C690        C691   1.396       .  A
C690        H699   1.084       .  S
C691        C692   1.408       .  A
C691        H700   1.083       .  S
C692        C693   1.408       .  A
C693        C694   1.397       .  A
C693        H701   1.083       .  S
C694        H702   1.084       .  S
C703        C704   1.408       .  A
C703        C708   1.408       .  A
C704        C705   1.397       .  A
C704        H717   1.083       .  S
C705        C706   1.399       .  A
C705        H718   1.084       .  S
C706        C707   1.398       .  A
C706        C709   1.435       .  S
C707        C708   1.396       .  A
C707        H719   1.084       .  S
C708        H720   1.083       .  S
C709        C710   1.203       .  T
C710        C711   1.435       .  S
C711        C712   1.399       .  A
C711        C716   1.397       .  A
C712        C713   1.399       .  A
C712        H721   1.083       .  S
C713        C714   1.408       .  A
C713        H722   1.083       .  S
C714        C715   1.409       .  A
C715        C716   1.395       .  A
C715        H723   1.083       .  S
C716        H724   1.084       .  S
C725        C726   1.409       .  A
C725        C730   1.406       .  A
C726        C727   1.401       .  A
C726        H739   1.083       .  S
C727        C728   1.400       .  A
C727        H740   1.083       .  S
C728        C729   1.399       .  A
C728        C731   1.440       .  S
C729        C730   1.396       .  A
C729        H741   1.084       .  S
C730        H742   1.083       .  S
C731        C732   1.206       .  T
C732        C733   1.439       .  S
C733        C734   1.400       .  A
C733        C738   1.398       .  A
C734        C735   1.398       .  A
C734        H743   1.084       .  S
C735        C736   1.408       .  A
C735        H744   1.083       .  S
C736        C737   1.410       .  A
C737        C738   1.398       .  A
C737        H745   1.083       .  S
C738        H746   1.083       .  S
C747        C748   1.409       .  A
C747        C752   1.408   1_545  A
C748        C749   1.399       .  A
C748        H761   1.083       .  S
C749        C750   1.399       .  A
C749        H762   1.084       .  S
C750        C751   1.400   1_545  A
C750        C753   1.442       .  S
C751        C752   1.401       .  A
C751        H763   1.083       .  S
C752        H764   1.083       .  S
C753        C754   1.207       .  T
C754        C755   1.441       .  S
C755        C756   1.400   1_545  A
C755        C760   1.400       .  A
C756        C757   1.399       .  A
C756        H765   1.083       .  S
C757        C758   1.409       .  A
C757        H766   1.083       .  S
C758        C759   1.407   1_565  A
C759        C760   1.398       .  A
C759        H767   1.083       .  S
C760        H768   1.083       .  S
C769        C770   1.408       .  A
C769        C774   1.409       .  A
C770        C771   1.392       .  A
C770        H783   1.083       .  S
C771        C772   1.396       .  A
C771        H784   1.084       .  S
C772        C773   1.400       .  A
C772        C775   1.435       .  S
C773        C774   1.401       .  A
C773        H785   1.083       .  S
C774        H786   1.083       .  S
C775        C776   1.203       .  T
C776        C777   1.436       .  S
C777        C778   1.398       .  A
C777        C782   1.400       .  A
C778        C779   1.394       .  A
C778        H787   1.084       .  S
C779        C780   1.406       .  A
C779        H788   1.083       .  S
C780        C781   1.408       .  A
C781        C782   1.400       .  A
C781        H789   1.083       .  S
C782        H790   1.083       .  S
C791        C792   1.410       .  A
C791        C796   1.408       .  A
C792        C793   1.400       .  A
C792        H805   1.083       .  S
C793        C794   1.400       .  A
C793        H806   1.084       .  S
C794        C795   1.400       .  A
C794        C797   1.443       .  S
C795        C796   1.401       .  A
C795        H807   1.083       .  S
C796        H808   1.083       .  S
C797        C798   1.208       .  T
C798        C799   1.443       .  S
C799        C800   1.400       .  A
C799        C804   1.400       .  A
C800        C801   1.400       .  A
C800        H809   1.083       .  S
C801        C802   1.409       .  A
C801        H810   1.083       .  S
C802        C803   1.407       .  A
C803        C804   1.398       .  A
C803        H811   1.083       .  S
C804        H812   1.083       .  S
C813        C814   1.408       .  A
C813        C818   1.407       .  A
C814        C815   1.399       .  A
C814        H827   1.083       .  S
C815        C816   1.400       .  A
C815        H828   1.084       .  S
C816        C817   1.398       .  A
C816        C819   1.437       .  S
C817        C818   1.396       .  A
C817        H829   1.084       .  S
C818        H830   1.083       .  S
C819        C820   1.204       .  T
C820        C821   1.436       .  S
C821        C822   1.401       .  A
C821        C826   1.397       .  A
C822        C823   1.400       .  A
C822        H831   1.083       .  S
C823        C824   1.407       .  A
C823        H832   1.083       .  S
C824        C825   1.407       .  A
C825        C826   1.393       .  A
C825        H833   1.083       .  S
C826        H834   1.084       .  S
C835        C836   1.408       .  A
C835        C840   1.407       .  A
C836        C837   1.397       .  A
C836        H849   1.083       .  S
C837        C838   1.398       .  A
C837        H850   1.084       .  S
C838        C839   1.399       .  A
C838        C841   1.436       .  S
C839        C840   1.398       .  A
C839        H851   1.084       .  S
C840        H852   1.083       .  S
C841        C842   1.204       .  T
C842        C843   1.436       .  S
C843        C844   1.400       .  A
C843        C848   1.397       .  A
C844        C845   1.400       .  A
C844        H853   1.083       .  S
C845        C846   1.409       .  A
C845        H854   1.083       .  S
C846        C847   1.408       .  A
C847        C848   1.394       .  A
C847        H855   1.083   1_455  S
C848        H856   1.084       .  S
C857        C858   1.407       .  A
C857        C862   1.409       .  A
C858        C859   1.400       .  A
C858        H871   1.083       .  S
C859        C860   1.400       .  A
C859        H872   1.083       .  S
C860        C861   1.398       .  A
C860        C863   1.438       .  S
C861        C862   1.396       .  A
C861        H873   1.084   1_455  S
C862        H874   1.083       .  S
C863        C864   1.205       .  T
C864        C865   1.438       .  S
C865        C866   1.400   1_455  A
C865        C870   1.397       .  A
C866        C867   1.401       .  A
C866        H875   1.083       .  S
C867        C868   1.409   1_655  A
C867        H876   1.083       .  S
C868        C869   1.409       .  A
C869        C870   1.394       .  A
C869        H877   1.083       .  S
C870        H878   1.084       .  S
C879        C880   1.408       .  A
C879        C884   1.407       .  A
C880        C881   1.398       .  A
C880        H893   1.083       .  S
C881        C882   1.399       .  A
C881        H894   1.084       .  S
C882        C883   1.398       .  A
C882        C885   1.436       .  S
C883        C884   1.396       .  A
C883        H895   1.084   1_455  S
C884        H896   1.083   1_455  S
C885        C886   1.204       .  T
C886        C887   1.435       .  S
C887        C888   1.399       .  A
C887        C892   1.398       .  A
C888        C889   1.396       .  A
C888        H897   1.084       .  S
C889        C890   1.407       .  A
C889        H898   1.083       .  S
C890        C891   1.408       .  A
C891        C892   1.397       .  A
C891        H899   1.083       .  S
C892        H900   1.084       .  S
C901        C902   1.409       .  A
C901        C906   1.409       .  A
C902        C903   1.400       .  A
C902        H915   1.083       .  S
C903        C904   1.400       .  A
C903        H916   1.083       .  S
C904        C905   1.398       .  A
C904        C907   1.439       .  S
C905        C906   1.396       .  A
C905        H917   1.084       .  S
C906        H918   1.083       .  S
C907        C908   1.206       .  T
C908        C909   1.439       .  S
C909        C910   1.397       .  A
C909        C914   1.401       .  A
C910        C911   1.396       .  A
C910        H919   1.084       .  S
C911        C912   1.409       .  A
C911        H920   1.083       .  S
C912        C913   1.407       .  A
C913        C914   1.400       .  A
C913        H921   1.083       .  S
C914        H922   1.083       .  S
C923        C924   1.407       .  A
C923        C928   1.407       .  A
C924        C925   1.397       .  A
C924        H937   1.083       .  S
C925        C926   1.399       .  A
C925        H938   1.084       .  S
C926        C927   1.398       .  A
C926        C929   1.435       .  S
C927        C928   1.396       .  A
C927        H939   1.084       .  S
C928        H940   1.083       .  S
C929        C930   1.203       .  T
C930        C931   1.435       .  S
C931        C932   1.398       .  A
C931        C936   1.398       .  A
C932        C933   1.396       .  A
C932        H941   1.084       .  S
C933        C934   1.408       .  A
C933        H942   1.083       .  S
C934        C935   1.409       .  A
C935        C936   1.397       .  A
C935        H943   1.083       .  S
C936        H944   1.084       .  S
C945        C946   1.409       .  A
C945        C950   1.409       .  A
C946        C947   1.401       .  A
C946        H959   1.083       .  S
C947        C948   1.400       .  A
C947        H960   1.083       .  S
C948        C949   1.399       .  A
C948        C951   1.442       .  S
C949        C950   1.398       .  A
C949        H961   1.084       .  S
C950        H962   1.083       .  S
C951        C952   1.207       .  T
C952        C953   1.441       .  S
C953        C954   1.400       .  A
C953        C958   1.399       .  A
C954        C955   1.399       .  A
C954        H963   1.084       .  S
C955        C956   1.409       .  A
C955        H964   1.083       .  S
C956        C957   1.407       .  A
C957        C958   1.398       .  A
C957        H965   1.083       .  S
C958        H966   1.083       .  S
C967        C968   1.407       .  A
C967        C972   1.408       .  A
C968        C969   1.395       .  A
C968        H981   1.083       .  S
C969        C970   1.397       .  A
C969        H982   1.084       .  S
C970        C971   1.399       .  A
C970        C973   1.434       .  S
C971        C972   1.398       .  A
C971        H983   1.084       .  S
C972        H984   1.083       .  S
C973        C974   1.203       .  T
C974        C975   1.434       .  S
C975        C976   1.397       .  A
C975        C980   1.399       .  A
C976        C977   1.396       .  A
C976        H985   1.084       .  S
C977        C978   1.408       .  A
C977        H986   1.083       .  S
C978        C979   1.408       .  A
C979        C980   1.397       .  A
C979        H987   1.083       .  S
C980        H988   1.084       .  S
C989        C990   1.408       .  A
C989        C994   1.407       .  A
C990        C991   1.399       .  A
C990       H1003   1.083       .  S
C991        C992   1.400       .  A
C991       H1004   1.083       .  S
C992        C993   1.399       .  A
C992        C995   1.440       .  S
C993        C994   1.397       .  A
C993       H1005   1.084       .  S
C994       H1006   1.083       .  S
C995        C996   1.206       .  T
C996        C997   1.440       .  S
C997        C998   1.399       .  A
C997       C1002   1.399       .  A
C998        C999   1.399       .  A
C998       H1007   1.083       .  S
C999       C1000   1.409       .  A
C999       H1008   1.083       .  S
C1000      C1001   1.407       .  A
C1001      C1002   1.398       .  A
C1001      H1009   1.083       .  S
C1002      H1010   1.083       .  S
C1011      C1012   1.409       .  A
C1011      C1016   1.409       .  A
C1012      C1013   1.399       .  A
C1012      H1025   1.083       .  S
C1013      C1014   1.399       .  A
C1013      H1026   1.083       .  S
C1014      C1015   1.401       .  A
C1014      C1017   1.445       .  S
C1015      C1016   1.402       .  A
C1015      H1027   1.084       .  S
C1016      H1028   1.083       .  S
C1017      C1018   1.209       .  T
C1018      C1019   1.444       .  S
C1019      C1020   1.397       .  A
C1019      C1024   1.403       .  A
C1020      C1021   1.396       .  A
C1020      H1029   1.084       .  S
C1021      C1022   1.410       .  A
C1021      H1030   1.083       .  S
C1022      C1023   1.409       .  A
C1023      C1024   1.404       .  A
C1023      H1031   1.083       .  S
C1024      H1032   1.083       .  S
C1033      C1034   1.408       .  A
C1033      C1038   1.409       .  A
C1034      C1035   1.401       .  A
C1034      H1047   1.083       .  S
C1035      C1036   1.401       .  A
C1035      H1048   1.083       .  S
C1036      C1037   1.399       .  A
C1036      C1039   1.443       .  S
C1037      C1038   1.398       .  A
C1037      H1049   1.084       .  S
C1038      H1050   1.083       .  S
C1039      C1040   1.208       .  T
C1040      C1041   1.443       .  S
C1041      C1042   1.398       .  A
C1041      C1046   1.401       .  A
C1042      C1043   1.397       .  A
C1042      H1051   1.084   1_565  S
C1043      C1044   1.410       .  A
C1043      H1052   1.083   1_565  S
C1044      C1045   1.409       .  A
C1045      C1046   1.402       .  A
C1045      H1053   1.083       .  S
C1046      H1054   1.083       .  S
C1055      C1056   1.409       .  A
C1055      C1060   1.408       .  A
C1056      C1057   1.396       .  A
C1056      H1069   1.083       .  S
C1057      C1058   1.397       .  A
C1057      H1070   1.084       .  S
C1058      C1059   1.401       .  A
C1058      C1061   1.439       .  S
C1059      C1060   1.400       .  A
C1059      H1071   1.084       .  S
C1060      H1072   1.083       .  S
C1061      C1062   1.206   1_565  T
C1062      C1063   1.439       .  S
C1063      C1064   1.397       .  A
C1063      C1068   1.401       .  A
C1064      C1065   1.396       .  A
C1064      H1073   1.084       .  S
C1065      C1066   1.409       .  A
C1065      H1074   1.083       .  S
C1066      C1067   1.409       .  A
C1067      C1068   1.401       .  A
C1067      H1075   1.083       .  S
C1068      H1076   1.083       .  S
C1077      C1078   1.408       .  A
C1077      C1082   1.408       .  A
C1078      C1079   1.398       .  A
C1078      H1091   1.083       .  S
C1079      C1080   1.399       .  A
C1079      H1092   1.083       .  S
C1080      C1081   1.400       .  A
C1080      C1083   1.440       .  S
C1081      C1082   1.398       .  A
C1081      H1093   1.084       .  S
C1082      H1094   1.083       .  S
C1083      C1084   1.206       .  T
C1084      C1085   1.440       .  S
C1085      C1086   1.398       .  A
C1085      C1090   1.401       .  A
C1086      C1087   1.396       .  A
C1086      H1095   1.084       .  S
C1087      C1088   1.408       .  A
C1087      H1096   1.083       .  S
C1088      C1089   1.409       .  A
C1089      C1090   1.402       .  A
C1089      H1097   1.083       .  S
C1090      H1098   1.083       .  S
C1099      C1100   1.409       .  A
C1099      C1104   1.409       .  A
C1100      C1101   1.398       .  A
C1100      H1113   1.083       .  S
C1101      C1102   1.399       .  A
C1101      H1114   1.084       .  S
C1102      C1103   1.400       .  A
C1102      C1105   1.441       .  S
C1103      C1104   1.400       .  A
C1103      H1115   1.083       .  S
C1104      H1116   1.083       .  S
C1105      C1106   1.207       .  T
C1106      C1107   1.441       .  S
C1107      C1108   1.400       .  A
C1107      C1112   1.399       .  A
C1108      C1109   1.399       .  A
C1108      H1117   1.083       .  S
C1109      C1110   1.409       .  A
C1109      H1118   1.083       .  S
C1110      C1111   1.407       .  A
C1111      C1112   1.398       .  A
C1111      H1119   1.083       .  S
C1112      H1120   1.083       .  S
C1121      C1122   1.407       .  A
C1121      C1126   1.407       .  A
C1122      C1123   1.399       .  A
C1122      H1135   1.083       .  S
C1123      C1124   1.400       .  A
C1123      H1136   1.083       .  S
C1124      C1125   1.399       .  A
C1124      C1127   1.441       .  S
C1125      C1126   1.397       .  A
C1125      H1137   1.083       .  S
C1126      H1138   1.083       .  S
C1127      C1128   1.207       .  T
C1128      C1129   1.442       .  S
C1129      C1130   1.399       .  A
C1129      C1134   1.400       .  A
C1130      C1131   1.400       .  A
C1130      H1139   1.084       .  S
C1131      C1132   1.410       .  A
C1131      H1140   1.083       .  S
C1132      C1133   1.409       .  A
C1133      C1134   1.400       .  A
C1133      H1141   1.083       .  S
C1134      H1142   1.084       .  S
C1143      C1144   1.409       .  A
C1143      C1148   1.408       .  A
C1144      C1145   1.396       .  A
C1144      H1157   1.083       .  S
C1145      C1146   1.398       .  A
C1145      H1158   1.084       .  S
C1146      C1147   1.401       .  A
C1146      C1149   1.441       .  S
C1147      C1148   1.400       .  A
C1147      H1159   1.083       .  S
C1148      H1160   1.083       .  S
C1149      C1150   1.207       .  T
C1150      C1151   1.441       .  S
C1151      C1152   1.400       .  A
C1151      C1156   1.399       .  A
C1152      C1153   1.400       .  A
C1152      H1161   1.083       .  S
C1153      C1154   1.408       .  A
C1153      H1162   1.083       .  S
C1154      C1155   1.409       .  A
C1155      C1156   1.399       .  A
C1155      H1163   1.083       .  S
C1156      H1164   1.084       .  S
C1165      C1166   1.409       .  A
C1165      C1170   1.410       .  A
C1166      C1167   1.401       .  A
C1166      H1179   1.083       .  S
C1167      C1168   1.401       .  A
C1167      H1180   1.083       .  S
C1168      C1169   1.401       .  A
C1168      C1171   1.447       .  S
C1169      C1170   1.402       .  A
C1169      H1181   1.083       .  S
C1170      H1182   1.083       .  S
C1171      C1172   1.210       .  T
C1172      C1173   1.447       .  S
C1173      C1174   1.400       .  A
C1173      C1178   1.401       .  A
C1174      C1175   1.401       .  A
C1174      H1183   1.083       .  S
C1175      C1176   1.409       .  A
C1175      H1184   1.083       .  S
C1176      C1177   1.409       .  A
C1177      C1178   1.401       .  A
C1177      H1185   1.083       .  S
C1178      H1186   1.083       .  S
C1187      C1188   1.409       .  A
C1187      C1192   1.408       .  A
C1188      C1189   1.400       .  A
C1188      H1201   1.083       .  S
C1189      C1190   1.399       .  A
C1189      H1202   1.084       .  S
C1190      C1191   1.400       .  A
C1190      C1193   1.443       .  S
C1191      C1192   1.400       .  A
C1191      H1203   1.083       .  S
C1192      H1204   1.083       .  S
C1193      C1194   1.208       .  T
C1194      C1195   1.443       .  S
C1195      C1196   1.401       .  A
C1195      C1200   1.399       .  A
C1196      C1197   1.401       .  A
C1196      H1205   1.083       .  S
C1197      C1198   1.409       .  A
C1197      H1206   1.083       .  S
C1198      C1199   1.409       .  A
C1199      C1200   1.398       .  A
C1199      H1207   1.083       .  S
C1200      H1208   1.084       .  S
C1209      C1210   1.408       .  A
C1209      C1214   1.409       .  A
C1210      C1211   1.399       .  A
C1210      H1223   1.083       .  S
C1211      C1212   1.400       .  A
C1211      H1224   1.084       .  S
C1212      C1213   1.398       .  A
C1212      C1215   1.439       .  S
C1213      C1214   1.398       .  A
C1213      H1225   1.084       .  S
C1214      H1226   1.083       .  S
C1215      C1216   1.206       .  T
C1216      C1217   1.439       .  S
C1217      C1218   1.400       .  A
C1217      C1222   1.398       .  A
C1218      C1219   1.400       .  A
C1218      H1227   1.084       .  S
C1219      C1220   1.409       .  A
C1219      H1228   1.083       .  S
C1220      C1221   1.408       .  A
C1221      C1222   1.397       .  A
C1221      H1229   1.083       .  S
C1222      H1230   1.084       .  S
C1231      C1232   1.409       .  A
C1231      C1236   1.408       .  A
C1232      C1233   1.400       .  A
C1232      H1245   1.083       .  S
C1233      C1234   1.400       .  A
C1233      H1246   1.083       .  S
C1234      C1235   1.400       .  A
C1234      C1237   1.444       .  S
C1235      C1236   1.399       .  A
C1235      H1247   1.084       .  S
C1236      H1248   1.083       .  S
C1237      C1238   1.208       .  T
C1238      C1239   1.444       .  S
C1239      C1240   1.399       .  A
C1239      C1244   1.401       .  A
C1240      C1241   1.399       .  A
C1240      H1249   1.084       .  S
C1241      C1242   1.409       .  A
C1241      H1250   1.083       .  S
C1242      C1243   1.409       .  A
C1243      C1244   1.401       .  A
C1243      H1251   1.083       .  S
C1244      H1252   1.083       .  S
C1253      C1254   1.409       .  A
C1253      C1258   1.408       .  A
C1254      C1255   1.400       .  A
C1254      H1267   1.083       .  S
C1255      C1256   1.399       .  A
C1255      H1268   1.083       .  S
C1256      C1257   1.399       .  A
C1256      C1259   1.440       .  S
C1257      C1258   1.398       .  A
C1257      H1269   1.084       .  S
C1258      H1270   1.083       .  S
C1259      C1260   1.206       .  T
C1260      C1261   1.440       .  S
C1261      C1262   1.398       .  A
C1261      C1266   1.401       .  A
C1262      C1263   1.396       .  A
C1262      H1271   1.084       .  S
C1263      C1264   1.409       .  A
C1263      H1272   1.083       .  S
C1264      C1265   1.407       .  A
C1265      C1266   1.400       .  A
C1265      H1273   1.083       .  S
C1266      H1274   1.083       .  S
C1275      C1276   1.410       .  A
C1275      C1280   1.409       .  A
C1276      C1277   1.394       .  A
C1276      H1289   1.083       .  S
C1277      C1278   1.397       .  A
C1277      H1290   1.084       .  S
C1278      C1279   1.402       .  A
C1278      C1281   1.442       .  S
C1279      C1280   1.404       .  A
C1279      H1291   1.083       .  S
C1280      H1292   1.083       .  S
C1281      C1282   1.207       .  T
C1282      C1283   1.442       .  S
C1283      C1284   1.400       .  A
C1283      C1288   1.399       .  A
C1284      C1285   1.399       .  A
C1284      H1293   1.083       .  S
C1285      C1286   1.408   1_565  A
C1285      H1294   1.083   1_565  S
C1286      C1287   1.408   1_545  A
C1287      C1288   1.398       .  A
C1287      H1295   1.083   1_565  S
C1288      H1296   1.083       .  S
C1297      C1298   1.408       .  A
C1297      C1302   1.408       .  A
C1298      C1299   1.397       .  A
C1298      H1311   1.083       .  S
C1299      C1300   1.398       .  A
C1299      H1312   1.083       .  S
C1300      C1301   1.399       .  A
C1300      C1303   1.436       .  S
C1301      C1302   1.397       .  A
C1301      H1313   1.084       .  S
C1302      H1314   1.083       .  S
C1303      C1304   1.204       .  T
C1304      C1305   1.437       .  S
C1305      C1306   1.400       .  A
C1305      C1310   1.398       .  A
C1306      C1307   1.399       .  A
C1306      H1315   1.084       .  S
C1307      C1308   1.409       .  A
C1307      H1316   1.083       .  S
C1308      C1309   1.408       .  A
C1309      C1310   1.396       .  A
C1309      H1317   1.083       .  S
C1310      H1318   1.084       .  S
C1319      C1320   1.407       .  A
C1319      C1324   1.409       .  A
C1320      C1321   1.396       .  A
C1320      H1333   1.083       .  S
C1321      C1322   1.398       .  A
C1321      H1334   1.084       .  S
C1322      C1323   1.398       .  A
C1322      C1325   1.435       .  S
C1323      C1324   1.397       .  A
C1323      H1335   1.084       .  S
C1324      H1336   1.083       .  S
C1325      C1326   1.203       .  T
C1326      C1327   1.435       .  S
C1327      C1328   1.399       .  A
C1327      C1332   1.398       .  A
C1328      C1329   1.396       .  A
C1328      H1337   1.084       .  S
C1329      C1330   1.407       .  A
C1329      H1338   1.083       .  S
C1330      C1331   1.409       .  A
C1331      C1332   1.397       .  A
C1331      H1339   1.083       .  S
C1332      H1340   1.084       .  S
C1341      C1342   1.408       .  A
C1341      C1346   1.408       .  A
C1342      C1343   1.396       .  A
C1342      H1355   1.083       .  S
C1343      C1344   1.398       .  A
C1343      H1356   1.084       .  S
C1344      C1345   1.399       .  A
C1344      C1347   1.435       .  S
C1345      C1346   1.397       .  A
C1345      H1357   1.084       .  S
C1346      H1358   1.083       .  S
C1347      C1348   1.203       .  T
C1348      C1349   1.435       .  S
C1349      C1350   1.398       .  A
C1349      C1354   1.398       .  A
C1350      C1351   1.396       .  A
C1350      H1359   1.084       .  S
C1351      C1352   1.407       .  A
C1351      H1360   1.083       .  S
C1352      C1353   1.409       .  A
C1353      C1354   1.397       .  A
C1353      H1361   1.083       .  S
C1354      H1362   1.084       .  S
C1363      C1364   1.408       .  A
C1363      C1368   1.408       .  A
C1364      C1365   1.396       .  A
C1364      H1377   1.083       .  S
C1365      C1366   1.398       .  A
C1365      H1378   1.084       .  S
C1366      C1367   1.400       .  A
C1366      C1369   1.438       .  S
C1367      C1368   1.399       .  A
C1367      H1379   1.083       .  S
C1368      H1380   1.083       .  S
C1369      C1370   1.205       .  T
C1370      C1371   1.439       .  S
C1371      C1372   1.398       .  A
C1371      C1376   1.400       .  A
C1372      C1373   1.398       .  A
C1372      H1381   1.084       .  S
C1373      C1374   1.409       .  A
C1373      H1382   1.083       .  S
C1374      C1375   1.408       .  A
C1375      C1376   1.399       .  A
C1375      H1383   1.083   1_455  S
C1376      H1384   1.084   1_455  S
C1385      C1386   1.409       .  A
C1385      C1390   1.408       .  A
C1386      C1387   1.401       .  A
C1386      H1399   1.083       .  S
C1387      C1388   1.400       .  A
C1387      H1400   1.083       .  S
C1388      C1389   1.399       .  A
C1388      C1391   1.440       .  S
C1389      C1390   1.397       .  A
C1389      H1401   1.084       .  S
C1390      H1402   1.083       .  S
C1391      C1392   1.206       .  T
C1392      C1393   1.439       .  S
C1393      C1394   1.397       .  A
C1393      C1398   1.401       .  A
C1394      C1395   1.393       .  A
C1394      H1403   1.084       .  S
C1395      C1396   1.408       .  A
C1395      H1404   1.083       .  S
C1396      C1397   1.409       .  A
C1397      C1398   1.402       .  A
C1397      H1405   1.083       .  S
C1398      H1406   1.083       .  S
C1407      C1408   1.406       .  A
C1407      C1412   1.411       .  A
C1408      C1409   1.399       .  A
C1408      H1421   1.083       .  S
C1409      C1410   1.400       .  A
C1409      H1422   1.083       .  S
C1410      C1411   1.399       .  A
C1410      C1413   1.440       .  S
C1411      C1412   1.399       .  A
C1411      H1423   1.084       .  S
C1412      H1424   1.083       .  S
C1413      C1414   1.206       .  T
C1414      C1415   1.440       .  S
C1415      C1416   1.398       .  A
C1415      C1420   1.400       .  A
C1416      C1417   1.396       .  A
C1416      H1425   1.084       .  S
C1417      C1418   1.409       .  A
C1417      H1426   1.083       .  S
C1418      C1419   1.408       .  A
C1419      C1420   1.401       .  A
C1419      H1427   1.083       .  S
C1420      H1428   1.083       .  S
C1429      C1430   1.407       .  A
C1429      C1434   1.410       .  A
C1430      C1431   1.397       .  A
C1430      H1443   1.083       .  S
C1431      C1432   1.399       .  A
C1431      H1444   1.084       .  S
C1432      C1433   1.398       .  A
C1432      C1435   1.437       .  S
C1433      C1434   1.398       .  A
C1433      H1445   1.084       .  S
C1434      H1446   1.083       .  S
C1435      C1436   1.204       .  T
C1436      C1437   1.436       .  S
C1437      C1438   1.398       .  A
C1437      C1442   1.399       .  A
C1438      C1439   1.395       .  A
C1438      H1447   1.084       .  S
C1439      C1440   1.407       .  A
C1439      H1448   1.083       .  S
C1440      C1441   1.408       .  A
C1441      C1442   1.399       .  A
C1441      H1449   1.083       .  S
C1442      H1450   1.083       .  S
C1451      C1452   1.407       .  A
C1451      C1456   1.409       .  A
C1452      C1453   1.398       .  A
C1452      H1465   1.083       .  S
C1453      C1454   1.399       .  A
C1453      H1466   1.083       .  S
C1454      C1455   1.399       .  A
C1454      C1457   1.439       .  S
C1455      C1456   1.398       .  A
C1455      H1467   1.084       .  S
C1456      H1468   1.083       .  S
C1457      C1458   1.206       .  T
C1458      C1459   1.439       .  S
C1459      C1460   1.398       .  A
C1459      C1464   1.400       .  A
C1460      C1461   1.396       .  A
C1460      H1469   1.084       .  S
C1461      C1462   1.408       .  A
C1461      H1470   1.083       .  S
C1462      C1463   1.408       .  A
C1463      C1464   1.400       .  A
C1463      H1471   1.083       .  S
C1464      H1472   1.083       .  S
C1473      C1474   1.408       .  A
C1473      C1478   1.408       .  A
C1474      C1475   1.400       .  A
C1474      H1487   1.083       .  S
C1475      C1476   1.400       .  A
C1475      H1488   1.083       .  S
C1476      C1477   1.397       .  A
C1476      C1479   1.438       .  S
C1477      C1478   1.395       .  A
C1477      H1489   1.084       .  S
C1478      H1490   1.083       .  S
C1479      C1480   1.205       .  T
C1480      C1481   1.438       .  S
C1481      C1482   1.399   1_545  A
C1481      C1486   1.399       .  A
C1482      C1483   1.397       .  A
C1482      H1491   1.084       .  S
C1483      C1484   1.408   1_565  A
C1483      H1492   1.083       .  S
C1484      C1485   1.408       .  A
C1485      C1486   1.398       .  A
C1485      H1493   1.083       .  S
C1486      H1494   1.083       .  S
