geometry optimzed in LAMMPS
_audit_creation_date              2020-11-30 
_audit_creation_method            'lammps2cif' 
_symmetry_space_group_name_H-M    'P1' 
_symmetry_Int_Tables_number       1 
_symmetry_cell_setting            triclinic 
loop_ 
_symmetry_equiv_pos_as_xyz 
  x,y,z 
_cell_length_a                    40.630748559459946 
_cell_length_b                    40.250573786425505 
_cell_length_c                    29.807808237833278 
_cell_angle_alpha                 89.74346661206559 
_cell_angle_beta                  89.87018191030386 
_cell_angle_gamma                 120.51686593777296 
loop_ 
_atom_site_label 
_atom_site_type_symbol 
_atom_site_fract_x 
_atom_site_fract_y 
_atom_site_fract_z 
_atom_site_charge 
C1          C  0.43701701  0.06150794  0.89495275     0.02730
C2          C  0.40026941  0.03844400  0.91418680    -0.13420
C3          C  0.38275819  0.05605832  0.93673200     0.00230
C4          C  0.40087738  0.09622415  0.93765457    -0.11940
C5          C  0.43887498  0.11948471  0.92455743     0.02730
C6          C  0.45669148  0.10199325  0.90205594    -0.11360
H7          H  0.38585193  0.00729303  0.91254669     0.08320
H8          H  0.38703985  0.10887279  0.95618953     0.05850
H9          H  0.48593960  0.11983293  0.89065895     0.05700
C10         C  0.43253426  0.38912036  0.87977152     0.02730
C11         C  0.45537181  0.37411438  0.89409586    -0.13420
C12         C  0.43830400  0.33723792  0.91311099     0.00230
C13         C  0.39860319  0.31453143  0.91574446    -0.11940
C14         C  0.37540681  0.33009263  0.90695723     0.02730
C15         C  0.39246773  0.36694405  0.88647481    -0.11360
H16         H  0.48624836  0.39169721  0.89291682     0.08320
H17         H  0.38704560  0.28766251  0.93421246     0.05850
H18         H  0.37491625  0.37923924  0.87822012     0.05700
C19         C  0.38593173  0.45295826  0.21307580     0.02730
C20         C  0.36591282  0.47147299  0.19947601    -0.13420
C21         C  0.33971759  0.45646123  0.16371347     0.00230
C22         C  0.33621724  0.42409418  0.14163188    -0.11940
C23         C  0.34694876  0.40017288  0.16259642     0.02730
C24         C  0.37375343  0.41535282  0.19719415    -0.11360
H25         H  0.37009150  0.99615868  0.21814709     0.08320
H26         H  0.31996321  0.41383125  0.11090851     0.05850
H27         H  0.38464135  0.39812394  0.21166837     0.05700
C28         C  0.09929048  0.05679111  0.89445278     0.02730
C29         C  0.11789095  0.03553663  0.90337104    -0.13420
C30         C  0.15129773  0.05162287  0.92973647     0.00230
C31         C  0.16657032  0.08939825  0.94451548    -0.11940
C32         C  0.14774255  0.10981754  0.93837636     0.02730
C33         C  0.11425984  0.09387122  0.91303981    -0.11360
H34         H  0.10644491  0.00686211  0.88994915     0.08320
H35         H  0.19197456  0.10220922  0.96524430     0.05850
H36         H  0.09988680  0.11008140  0.90832396     0.05700
C37         C  0.04669795  0.46012855  0.21060518     0.02730
C38         C  0.02576924  0.42351095  0.18973802    -0.13420
C39         C  0.04550823  0.40897438  0.16529828     0.00230
C40         C  0.08529174  0.43056604  0.16338419    -0.11940
C41         C  0.10595501  0.46765574  0.18052760     0.02730
C42         C  0.08667431  0.48260768  0.20376675    -0.11360
H43         H  0.49493156  0.40676345  0.19242620     0.08320
H44         H  0.10035636  0.41929926  0.14457519     0.05850
H45         H  0.10312376  0.01141697  0.21734356     0.05700
C46         C  0.22712516  0.01297456  0.06096332     0.00170
C47         C  0.25627975  0.00494171  0.06015660     0.00170
C48         C  0.04628547  0.12413781  0.21541890     0.02730
C49         C  0.02566356  0.14369607  0.20982454    -0.13420
C50         C  0.04191849  0.17923746  0.18691997     0.00230
C51         C  0.08032865  0.19663956  0.17452728    -0.11940
C52         C  0.10002510  0.17663095  0.17450127     0.02730
C53         C  0.08304108  0.14006468  0.19546102    -0.11360
H54         H  0.49713278  0.13130164  0.22343673     0.08320
H55         H  0.09422864  0.22483215  0.15874143     0.05850
H56         H  0.09814676  0.12435054  0.19626548     0.05700
C57         C  0.50171013  0.24756130  0.04817498     0.00170
C58         C  0.50362745  0.28261934  0.04321440     0.00170
C59         C  0.22579526  0.24424340  0.04903818     0.00170
C60         C  0.26326386  0.27383338  0.04879966     0.00170
O61         O  0.05810802  0.01277530  0.83979186    -0.85750
O62         O  0.48622616  0.44911822  0.85646199    -0.82790
C63         C  0.45037137  0.42739329  0.85734699     0.97720
O64         O  0.42942470  0.43661672  0.83597849    -0.82820
O65         O  0.43876029  0.00813614  0.86145166    -0.85470
C66         C  0.45438641  0.04429270  0.86587015     1.02240
O67         O  0.48365047  0.06667277  0.84282023    -0.78230
O68         O  0.04616294  0.05771465  0.86099146    -0.78420
C69         C  0.06563332  0.04129196  0.86418677     1.02190
O70         O  0.04351380  0.00334012  0.74658785    -0.85740
O71         O  0.47388570  0.43730768  0.76299264    -0.82810
C72         C  0.44626239  0.43427191  0.74037226     0.97740
O73         O  0.43476111  0.45791865  0.74532269    -0.82830
O74         O  0.43798599  0.02621299  0.76947307    -0.85440
C75         C  0.46183531  0.05467011  0.74618026     1.02210
O76         O  0.49722018  0.06684936  0.74939030    -0.78260
O77         O  0.06274325  0.06259742  0.76767586    -0.78410
C78         C  0.06722446  0.03901389  0.74426390     1.02170
Cr79       Cr  0.01328220  0.47839380  0.80162157     1.93740
Cr80       Cr  0.44009604  0.48450021  0.80323453     1.93210
Cr81       Cr  0.01987176  0.05869146  0.80500280     1.39100
O82         O  0.49114782  0.00722945  0.80295564    -1.23490
C83         C  0.44652771  0.07353926  0.71667203     0.02730
C84         C  0.40942060  0.05037771  0.69903358    -0.13420
C85         C  0.39188976  0.06727744  0.67569991     0.00230
C86         C  0.41052939  0.10715745  0.67164479    -0.11940
C87         C  0.44854024  0.13110898  0.68463116     0.02730
C88         C  0.46648852  0.11400098  0.70843698    -0.11360
H89         H  0.39467357  0.01926053  0.70239872     0.08320
H90         H  0.39607664  0.11900319  0.65268940     0.05850
H91         H  0.49494639  0.13169300  0.72157669     0.05700
C92         C  0.38509594  0.44804226  0.39716119     0.02730
C93         C  0.37044582  0.47030521  0.41550295    -0.13420
C94         C  0.33568001  0.45220275  0.43875487     0.00230
C95         C  0.31485006  0.41224573  0.44154063    -0.11940
C96         C  0.33016144  0.38958606  0.42845168     0.02730
C97         C  0.36535149  0.40762542  0.40492894    -0.11360
H98         H  0.38642874  0.00146528  0.41264887     0.08320
H99         H  0.28816104  0.39926092  0.46018412     0.05850
H100        H  0.37677202  0.39053042  0.39179015     0.05700
C101        C  0.10235852  0.05415886  0.71660521     0.02730
C102        C  0.11883991  0.09173834  0.69874753    -0.13420
C103        C  0.15461691  0.10875819  0.67790462     0.00230
C104        C  0.17527231  0.08991073  0.67872643    -0.11940
C105        C  0.15822993  0.05105330  0.69076645     0.02730
C106        C  0.12129076  0.03299734  0.71035726    -0.11360
H107        H  0.10335473  0.10709903  0.69978181     0.08320
H108        H  0.20304258  0.10432226  0.66264805     0.05850
H109        H  0.10779007  0.00319580  0.72122811     0.05700
C110        C  0.05732120  0.46535719  0.39220709     0.02730
C111        C  0.03445548  0.42752583  0.40915484    -0.13420
C112        C  0.05090410  0.40995626  0.43327338     0.00230
C113        C  0.09017235  0.42917570  0.43901372    -0.11940
C114        C  0.11380411  0.46772278  0.42624775     0.02730
C115        C  0.09718406  0.48582339  0.40157770    -0.11360
H116        H  0.50373928  0.41216024  0.40479143     0.08320
H117        H  0.10161432  0.41468097  0.45874339     0.05850
H118        H  0.11484037  0.01488989  0.38897655     0.05700
C119        C  0.47800851  0.24113915  0.54793850     0.00170
C120        C  0.47587624  0.27421658  0.54519827     0.00170
C121        C  0.26200317  0.00489332  0.55917861     0.00170
C122        C  0.22652279  0.00167893  0.56021018     0.00170
C123        C  0.03923948  0.12198407  0.39264365     0.02730
C124        C  0.01881229  0.14148708  0.39943462    -0.13420
C125        C  0.03629233  0.17740656  0.42158365     0.00230
C126        C  0.07396554  0.19304844  0.43586732    -0.11940
C127        C  0.09254553  0.17206499  0.43444329     0.02730
C128        C  0.07596135  0.13718113  0.41134133    -0.11360
H129        H  0.48984675  0.12906675  0.38727299     0.08320
H130        H  0.08726656  0.21940836  0.45514691     0.05850
H131        H  0.09079586  0.12119601  0.40954780     0.05700
C132        C  0.42566620  0.40012380  0.71142969     0.02730
C133        C  0.38543516  0.38109742  0.70742309    -0.13420
C134        C  0.36540202  0.34462873  0.68702340     0.00230
C135        C  0.38612926  0.32820318  0.67082009    -0.11940
C136        C  0.42579914  0.34785182  0.67078233     0.02730
C137        C  0.44581370  0.38367081  0.69190412    -0.11360
H138        H  0.36983231  0.39404500  0.72096955     0.08320
H139        H  0.37153284  0.30115420  0.65289549     0.05850
H140        H  0.47675101  0.39890876  0.69249557     0.05700
C141        C  0.24870650  0.27571896  0.56092093     0.00170
C142        C  0.21642968  0.23990316  0.55953691     0.00170
O143        O  0.42242589  0.99457198  0.34262758    -0.85750
O144        O  0.48855210  0.06444314  0.36013233    -0.82790
C145        C  0.02408243  0.08749229  0.36378845     0.97720
O146        O  0.04775305  0.08296626  0.34094444    -0.82820
O147        O  0.05124311  0.01676356  0.35890757    -0.85470
C148        C  0.03867528  0.48101614  0.36279596     1.02240
O149        O  0.50993722  0.45714160  0.34054014    -0.78230
O150        O  0.44202747  0.45505951  0.36325813    -0.78420
C151        C  0.41879304  0.46707521  0.36688813     1.02190
O152        O  0.43730350  0.00760890  0.24905259    -0.85740
O153        O  0.50038875  0.08006919  0.26733609    -0.82810
C154        C  0.02964543  0.08858951  0.24401142     0.97740
O155        O  0.04546877  0.06858943  0.24728214    -0.82830
O156        O  0.05100696  0.00398456  0.26544753    -0.85440
C157        C  0.02893331  0.47488410  0.24226142     1.02210
O158        O  0.49322387  0.45790456  0.24808206    -0.78260
O159        O  0.42356474  0.44992929  0.27117581    -0.78410
C160        C  0.41726127  0.47130333  0.24603417     1.02170
Cr161      Cr  0.46471546  0.03443853  0.30474641     1.93740
Cr162      Cr  0.04396680  0.04034822  0.30335156     1.93210
Cr163      Cr  0.46952074  0.46001218  0.30583694     1.39100
O164        O  0.49282553  0.01169056  0.30496833    -1.23490
C165        C  0.27077723  0.29152205  0.60385158    -0.06520
C166        C  0.28077529  0.26926565  0.63084169    -0.17650
C167        C  0.30354764  0.28493583  0.66863858     0.10680
C168        C  0.32448986  0.32545162  0.67363566    -0.06450
C169        C  0.31192496  0.34722369  0.65020377    -0.17680
C170        C  0.28364558  0.32999485  0.61708953     0.10710
S171        S  0.30923076  0.25275279  0.70599559    -0.32650
S172        S  0.26491531  0.35758260  0.59141646    -0.32650
H173        H  0.28170238  0.38875150  0.62137918     0.28720
H174        H  0.32704187  0.28006637  0.74027420     0.28710
H175        H  0.27201556  0.23989061  0.62235776     0.19310
H176        H  0.32628712  0.37810778  0.65495014     0.19310
C177        C  0.12462164  0.18414150  0.46579798    -0.06520
C178        C  0.16157050  0.19529996  0.45053664    -0.17650
C179        C  0.19313033  0.21400009  0.47965464     0.10680
C180        C  0.18765848  0.22513323  0.52285086    -0.06450
C181        C  0.15044771  0.21354059  0.53717662    -0.17680
C182        C  0.11917857  0.19081781  0.51083368     0.10710
S183        S  0.23896763  0.22138793  0.46233349    -0.32650
S184        S  0.07268660  0.17098919  0.53688339    -0.32650
H185        H  0.05447282  0.13815110  0.50952453     0.28720
H186        H  0.22755930  0.20460866  0.41969727     0.28710
H187        H  0.16553239  0.18936983  0.41617455     0.19310
H188        H  0.14534072  0.21991364  0.57087613     0.19310
C189        C  0.46008095  0.28798451  0.58130776    -0.06520
C190        C  0.47701898  0.29786648  0.62421169    -0.17650
C191        C  0.46756649  0.31834438  0.65477421     0.10680
C192        C  0.44365603  0.33235083  0.64059923    -0.06450
C193        C  0.42948532  0.32496176  0.59675252    -0.17680
C194        C  0.43502455  0.30104473  0.56865237     0.10710
S195        S  0.48677041  0.32555748  0.71065173    -0.32650
S196        S  0.40893468  0.28845994  0.51675082    -0.32650
H197        H  0.39746908  0.24932420  0.52004095     0.28720
H198        H  0.45610251  0.32564875  0.73240010     0.28710
H199        H  0.49783316  0.28995104  0.63375708     0.19310
H200        H  0.41100510  0.33546618  0.58548016     0.19310
C201        C  0.98893948  0.22632071  0.50755454    -0.06520
C202        C  0.02284881  0.25010480  0.48358149    -0.17650
C203        C  0.03368533  0.23593881  0.44718026     0.10680
C204        C  0.01486047  0.19561237  0.43968202    -0.06450
C205        C  0.47996688  0.17210903  0.46180417    -0.17680
C206        C  0.46611253  0.18747561  0.49378071     0.10710
S207        S  0.07262439  0.27054133  0.41235337    -0.32650
S208        S  0.41927713  0.15601890  0.51644582    -0.32650
H209        H  0.40496978  0.17953799  0.50245401     0.28720
H210        H  0.06453265  0.24538303  0.37600401     0.28710
H211        H  0.04122385  0.27990327  0.49288825     0.19310
H212        H  0.46424350  0.14131647  0.45600057     0.19310
C213        C  0.99684811  0.30553230  0.51071610    -0.06520
C214        C  0.02319317  0.34137926  0.52933191    -0.17650
C215        C  0.03532550  0.37544863  0.50620336     0.10680
C216        C  0.02823669  0.37448789  0.45994279    -0.06450
C217        C  0.50484251  0.33889846  0.43920195    -0.17680
C218        C  0.48753364  0.30439502  0.46436628     0.10710
S219        S  0.05822517  0.41945675  0.53833622    -0.32650
S220        S  0.45429922  0.26143992  0.43456735    -0.32650
H221        H  0.43528255  0.23947530  0.47230635     0.28720
H222        H  0.04698265  0.44012842  0.51035202     0.28710
H223        H  0.03127538  0.34331337  0.56426126     0.19310
H224        H  0.49967988  0.33808812  0.40344785     0.19310
C225        C  0.20366939  0.49629084  0.51792099    -0.06520
C226        C  0.19168831  0.02318110  0.50999465    -0.17650
C227        C  0.16627968  0.01842363  0.47534540     0.10680
C228        C  0.15347981  0.48708756  0.44567504    -0.06450
C229        C  0.17119367  0.46468717  0.44857880    -0.17680
C230        C  0.19243040  0.46605868  0.48636652     0.10710
S231        S  0.14852221  0.05114652  0.47325582    -0.32650
S232        S  0.19739083  0.42429493  0.49455839    -0.32650
H233        H  0.20488890  0.42880502  0.54062515     0.28720
H234        H  0.16302509  0.06393412  0.42971906     0.28710
H235        H  0.20062886  0.04720870  0.53264711     0.19310
H236        H  0.16234290  0.44086862  0.42555523     0.19310
C237        C  0.17682286  0.02986336  0.67265900    -0.06520
C238        C  0.15467100  0.99625907  0.64774372    -0.17650
C239        C  0.17145345  0.98461277  0.61486919     0.10680
C240        C  0.21039411  0.00897864  0.60252809    -0.06450
C241        C  0.23276211  0.04112130  0.62981786    -0.17680
C242        C  0.21707697  0.04894113  0.66731228     0.10710
S243        S  0.14188694  0.43816974  0.59003434    -0.32650
S244        S  0.24964706  0.08501474  0.70603855    -0.32650
H245        H  0.22261661  0.07468176  0.74081983     0.28720
H246        H  0.16828226  0.42637368  0.59949297     0.28710
H247        H  0.12394756  0.47991437  0.65220987     0.19310
H248        H  0.26251191  0.06077236  0.62218013     0.19310
C249        C  0.16918364  0.14310920  0.64869113    -0.06520
C250        C  0.17305374  0.17761822  0.66482402    -0.17650
C251        C  0.18944808  0.21098379  0.63784530     0.10680
C252        C  0.20508934  0.21027770  0.59542456    -0.06450
C253        C  0.20262569  0.17613257  0.58088930    -0.17680
C254        C  0.18246394  0.14230760  0.60504642     0.10710
S255        S  0.18828678  0.25223014  0.65932287    -0.32650
S256        S  0.17242380  0.09869965  0.57639722    -0.32650
H257        H  0.13656492  0.07521421  0.59683215     0.28720
H258        H  0.19231335  0.27100587  0.61821841     0.28710
H259        H  0.16262902  0.17834248  0.69809512     0.19310
H260        H  0.21337911  0.17492681  0.54797360     0.19310
C261        C  0.26739199  0.29894376  0.51904366    -0.06520
C262        C  0.30653351  0.31183817  0.51293286    -0.17650
C263        C  0.32810078  0.33767380  0.47851597     0.10680
C264        C  0.31000636  0.34926371  0.44690355    -0.06450
C265        C  0.26971984  0.33014923  0.44796346    -0.17680
C266        C  0.24909858  0.30940629  0.48605362     0.10710
S267        S  0.37903759  0.35835171  0.48028106    -0.32650
S268        S  0.20273696  0.30470219  0.49316117    -0.32650
H269        H  0.20061893  0.30009579  0.53994699     0.28720
H270        H  0.38052895  0.34588160  0.43672251     0.28710
H271        H  0.32115494  0.30367019  0.53703310     0.19310
H272        H  0.25532025  0.33849025  0.42371625     0.19310
C273        C  0.27635419  0.49011395  0.52242325    -0.06520
C274        C  0.28883214  0.46528034  0.53771751    -0.17650
C275        C  0.31521796  0.46050571  0.51372321     0.10680
C276        C  0.32269234  0.47253137  0.46858227    -0.06450
C277        C  0.30937883  0.49613063  0.45152455    -0.17680
C278        C  0.28852317  0.50739506  0.47930908     0.10710
S279        S  0.33901126  0.43902080  0.54255334    -0.32650
S280        S  0.28040060  0.54534501  0.46079227    -0.32650
H281        H  0.29936899  0.55229031  0.41925642     0.28720
H282        H  0.37148649  0.45526112  0.51457062     0.28710
H283        H  0.28157456  0.95321634  0.57134144     0.19310
H284        H  0.31566580  0.50590871  0.41699919     0.19310
C285        C  0.46756123  0.17178607  0.66635360    -0.06520
C286        C  0.44441933  0.18852323  0.66301601    -0.17650
C287        C  0.44404598  0.20768430  0.62374370     0.10680
C288        C  0.47420265  0.21992855  0.59181932    -0.06450
C289        C  0.50266619  0.21053221  0.60111912    -0.17680
C290        C  0.49918128  0.18605575  0.63694187     0.10710
S291        S  0.40029525  0.20785699  0.61428897    -0.32650
S292        S  0.03459550  0.17215717  0.64168690    -0.32650
H293        H  0.04322445  0.18495969  0.68626773     0.28720
H294        H  0.40280082  0.20830167  0.56759545     0.28710
H295        H  0.42073643  0.17908416  0.68633653     0.19310
H296        H  0.02694042  0.22052424  0.57866382     0.19310
C297        C  0.35773923  0.04539737  0.64733409    -0.06520
C298        C  0.32151050  0.01992370  0.66553295    -0.17650
C299        C  0.28853164  0.00583678  0.63854864     0.10680
C300        C  0.29166051  0.02244578  0.59534934    -0.06450
C301        C  0.32821928  0.04967570  0.57932872    -0.17680
C302        C  0.36061056  0.05648732  0.60209060     0.10710
S303        S  0.24418145  0.96517697  0.65803168    -0.32650
S304        S  0.40505840  0.07763747  0.57119043    -0.32650
H305        H  0.42246909  0.06256351  0.59877314     0.28720
H306        H  0.25806062  0.96011086  0.69913952     0.28710
H307        H  0.31928966  0.01054659  0.70007646     0.19310
H308        H  0.33175644  0.06128286  0.54562360     0.19310
C309        C  0.13477394  0.19346663  0.14515313    -0.06520
C310        C  0.13105303  0.20696845  0.10294174    -0.17650
C311        C  0.16246488  0.23065397  0.07654614     0.10680
C312        C  0.19843368  0.23582074  0.08720427    -0.06450
C313        C  0.20279223  0.22156889  0.12882849    -0.17680
C314        C  0.17160627  0.20196062  0.15878621     0.10710
S315        S  0.15491273  0.25346598  0.02889972    -0.32650
S316        S  0.18059426  0.18861845  0.21313796    -0.32650
H317        H  0.15285525  0.19309466  0.23612822     0.28720
H318        H  0.18897165  0.28860780  0.03595887     0.28710
H319        H  0.10331357  0.20109959  0.09152547     0.19310
H320        H  0.23013706  0.22474830  0.13734101     0.19310
C321        C  0.02001360  0.19705669  0.16806465    -0.06520
C322        C  0.04022763  0.23750250  0.16306697    -0.17650
C323        C  0.03823217  0.25469717  0.12299057     0.10680
C324        C  0.00747914  0.23326202  0.09294757    -0.06450
C325        C  0.98114131  0.19457645  0.10461038    -0.17680
C326        C  0.98798618  0.17591359  0.14005735     0.10710
S327        S  0.08035165  0.30029115  0.10972686    -0.32650
S328        S  0.95740662  0.12453278  0.14388908    -0.32650
H329        H  0.94497638  0.12646677  0.18737963     0.28720
H330        H  0.07795303  0.29436501  0.06342779     0.28710
H331        H  0.06385537  0.25459977  0.18544084     0.19310
H332        H  0.95657742  0.17756532  0.08347452     0.19310
C333        C  0.14698495  0.49051523  0.16864617    -0.06520
C334        C  0.16004322  0.02368619  0.14194453    -0.17650
C335        C  0.19057252  0.03477255  0.11180650     0.10680
C336        C  0.20519814  0.50984848  0.10401226    -0.06450
C337        C  0.19428055  0.47930273  0.13504709    -0.17680
C338        C  0.16858557  0.47223025  0.16967271     0.10710
S339        S  0.20910151  0.08038963  0.08359596    -0.32650
S340        S  0.15932509  0.43450817  0.20964556    -0.32650
H341        H  0.14009514  0.44489023  0.24084315     0.28720
H342        H  0.24719054  0.09046814  0.09090549     0.28710
H343        H  0.14501887  0.03950238  0.14234489     0.19310
H344        H  0.20281021  0.45844337  0.13205580     0.19310
C345        C  0.02771176  0.37465819  0.13549590    -0.06520
C346        C  0.04230478  0.38158187  0.09158396    -0.17650
C347        C  0.04025632  0.35234508  0.06529744     0.10680
C348        C  0.01670373  0.31332515  0.07865089    -0.06450
C349        C  0.99840340  0.30570475  0.12099204    -0.17680
C350        C  0.00545791  0.33598296  0.15049399     0.10710
S351        S  0.06930803  0.36752793  0.01510062    -0.32650
S352        S  0.98551787  0.32342573  0.20623248    -0.32650
H353        H  0.01580957  0.35521745  0.22771322     0.28720
H354        H  0.07498267  0.33600243  0.01415080     0.28710
H355        H  0.05951344  0.41102881  0.07945721     0.19310
H356        H  0.47872854  0.27622460  0.13116704     0.19310
C357        C  0.16183895  0.14511644  0.96503616    -0.06520
C358        C  0.17896354  0.18142113  0.94415617    -0.17650
C359        C  0.20057782  0.21537097  0.96906643     0.10680
C360        C  0.20878357  0.21236542  0.01502802    -0.06450
C361        C  0.19293324  0.17525379  0.03403864    -0.17680
C362        C  0.16664282  0.14274222  0.01133725     0.10710
S363        S  0.21557212  0.25991875  0.93913464    -0.32650
S364        S  0.13991229  0.09860746  0.04335044    -0.32650
H365        H  0.10870691  0.08110821  0.01389715     0.28720
H366        H  0.22291756  0.28327315  0.97657363     0.28710
H367        H  0.17541091  0.18327520  0.90836818     0.19310
H368        H  0.19842496  0.17159560  0.06870545     0.19310
C369        C  0.16973758  0.03035649  0.94821553    -0.06520
C370        C  0.21003107  0.05063840  0.94904401    -0.17650
C371        C  0.23014945  0.04742130  0.98541449     0.10680
C372        C  0.21019811  0.01820520  0.01830044    -0.06450
C373        C  0.17052280  0.99338528  0.01258982    -0.17680
C374        C  0.15013955  0.99971259  0.97908856     0.10710
S375        S  0.27906161  0.08613821  0.99046105    -0.32650
S376        S  0.09887236  0.47123145  0.98155116    -0.32650
H377        H  0.09613949  0.95724577  0.93776122     0.28720
H378        H  0.28226668  0.08306044  0.03684993     0.28710
H379        H  0.22549109  0.07428921  0.92553744     0.19310
H380        H  0.15465260  0.47030936  0.03662781     0.19310
C381        C  0.32502632  0.35880299  0.15010951    -0.06520
C382        C  0.34287155  0.34192138  0.12724995    -0.17650
C383        C  0.32137501  0.30976597  0.09951950     0.10680
C384        C  0.28265424  0.29773237  0.08985740    -0.06450
C385        C  0.26454622  0.31248450  0.11665141    -0.17680
C386        C  0.28469252  0.33998345  0.14941008     0.10710
S387        S  0.34351049  0.28437477  0.07672739    -0.32650
S388        S  0.25781814  0.35196215  0.18762657    -0.32650
H389        H  0.28727658  0.37055633  0.21918111     0.28720
H390        H  0.37720360  0.30349478  0.10215182     0.28710
H391        H  0.37358109  0.35494101  0.12923674     0.19310
H392        H  0.23518962  0.30445328  0.11113257     0.19310
C393        C  0.26674951  0.49047062  0.10053096    -0.06520
C394        C  0.29364988  0.01661924  0.13113394    -0.17650
C395        C  0.31922016  0.00787537  0.15233437     0.10680
C396        C  0.31237410  0.46959329  0.15021164    -0.06450
C397        C  0.27764824  0.44154711  0.13059213    -0.17680
C398        C  0.25719855  0.45177493  0.10252502     0.10710
S399        S  0.36179775  0.04815889  0.17453995    -0.32650
S400        S  0.22036852  0.41405673  0.06891484    -0.32650
H401        H  0.19704755  0.43031455  0.06527278     0.28720
H402        H  0.38628081  0.03851663  0.15205987     0.28710
H403        H  0.29908307  0.04588870  0.13225470     0.19310
H404        H  0.26806930  0.41126305  0.13269879     0.19310
C405        C  0.33830361  0.31321274  0.93224963    -0.06520
C406        C  0.33068345  0.33855841  0.95614748    -0.17650
C407        C  0.30428815  0.32570289  0.99142204     0.10680
C408        C  0.28644332  0.28671013  0.00608042    -0.06450
C409        C  0.29218937  0.26078499  0.98048895    -0.17680
C410        C  0.31583366  0.27318409  0.94217176     0.10710
S411        S  0.29550293  0.36124963  0.01648772    -0.32650
S412        S  0.31656095  0.23762890  0.90588127    -0.32650
H413        H  0.29043497  0.20483721  0.93066962     0.28720
H414        H  0.25728370  0.33537364  0.02815181     0.28710
H415        H  0.34675867  0.36919697  0.94907127     0.19310
H416        H  0.27852111  0.23087680  0.99073268     0.19310
C417        C  0.45937513  0.32668289  0.94435429    -0.06520
C418        C  0.48359525  0.31373943  0.92911171    -0.17650
C419        C  0.49853745  0.29787571  0.95954932     0.10680
C420        C  0.48574010  0.29181963  0.00492441    -0.06450
C421        C  0.45899717  0.30217683  0.01806241    -0.17680
C422        C  0.44934092  0.32306805  0.99002988     0.10710
S423        S  0.53441279  0.28728614  0.94036573    -0.32650
S424        S  0.42464890  0.34525245  0.01489512    -0.32650
H425        H  0.43956032  0.37698585  0.98536633     0.28720
H426        H  0.53623454  0.29956740  0.89570812     0.28710
H427        H  0.49093486  0.31646053  0.89380626     0.19310
H428        H  0.44866408  0.29768349  0.05239617     0.19310
C429        C  0.46042122  0.15909521  0.94434219    -0.06520
C430        C  0.49442668  0.16981332  0.96740869    -0.17650
C431        C  0.50940683  0.20003950  0.99846054     0.10680
C432        C  0.48898998  0.21884618  0.00988111    -0.06450
C433        C  0.45523651  0.20834734  0.98600112    -0.17680
C434        C  0.44290962  0.18149728  0.95110826     0.10710
S435        S  0.05450338  0.21277757  0.02314235    -0.32650
S436        S  0.40450698  0.17707215  0.91642678    -0.32650
H437        H  0.41220665  0.15979088  0.88010274     0.28720
H438        H  0.07090166  0.25154013  0.00985357     0.28710
H439        H  0.00869849  0.15350331  0.96284866     0.19310
H440        H  0.43801600  0.22093414  0.99424376     0.19310
C441        C  0.28562252  0.01621063  0.02331220    -0.06520
C442        C  0.32312712  0.04309623  0.03632841    -0.17650
C443        C  0.35462364  0.04904605  0.01222948     0.10680
C444        C  0.34997519  0.03537241  0.96798918    -0.06450
C445        C  0.31282172  0.00999795  0.95247757    -0.17680
C446        C  0.28056166  0.99857704  0.98047356     0.10710
S447        S  0.40055977  0.07669970  0.03928297    -0.32650
S448        S  0.23507572  0.46303555  0.95774163    -0.32650
H449        H  0.21308109  0.45631201  0.99619439     0.28720
H450        H  0.41901043  0.06171923  0.01345957     0.28710
H451        H  0.32867118  0.05943586  0.06668600     0.19310
H452        H  0.30890681  0.99953561  0.91834280     0.19310
C453        C  0.43699835  0.56149976  0.89494169     0.02730
C454        C  0.40024806  0.53843274  0.91416756    -0.13420
C455        C  0.38273359  0.55604285  0.93671439     0.00230
C456        C  0.40085399  0.59620861  0.93765064    -0.11940
C457        C  0.43885235  0.61947166  0.92455693     0.02730
C458        C  0.45667095  0.60198400  0.90205154    -0.11360
H459        H  0.38583134  0.50728206  0.91252171     0.08320
H460        H  0.38701643  0.60885339  0.95619322     0.05850
H461        H  0.48591992  0.61982554  0.89065833     0.05700
C462        C  0.43253301  0.88911588  0.87976814     0.02730
C463        C  0.45536892  0.87410715  0.89408912    -0.13420
C464        C  0.43829960  0.83722977  0.91310170     0.00230
C465        C  0.39859871  0.81452466  0.91573533    -0.11940
C466        C  0.37540371  0.83008820  0.90695216     0.02730
C467        C  0.39246627  0.86694076  0.88647164    -0.11360
H468        H  0.48624558  0.89168883  0.89291052     0.08320
H469        H  0.38704085  0.78765543  0.93420254     0.05850
H470        H  0.37491614  0.87923789  0.87821905     0.05700
C471        C  0.38593689  0.95295461  0.21307813     0.02730
C472        C  0.36592041  0.97147145  0.19947707    -0.13420
C473        C  0.33972575  0.95646084  0.16371415     0.00230
C474        C  0.33622288  0.92409243  0.14163367    -0.11940
C475        C  0.34695175  0.90016954  0.16259943     0.02730
C476        C  0.37375623  0.91534832  0.19719759    -0.11360
H477        H  0.37008234  0.49615914  0.21814705     0.08320
H478        H  0.31996858  0.91382999  0.11091038     0.05850
H479        H  0.38464239  0.89811820  0.21167263     0.05700
C480        C  0.09928610  0.55679833  0.89444860     0.02730
C481        C  0.11788806  0.53554542  0.90336842    -0.13420
C482        C  0.15129608  0.55163413  0.92973225     0.00230
C483        C  0.16656904  0.58941098  0.94450601    -0.11940
C484        C  0.14773908  0.60982816  0.93836702     0.02730
C485        C  0.11425486  0.59387916  0.91303310    -0.11360
H486        H  0.10644180  0.50686992  0.88994949     0.08320
H487        H  0.19197403  0.60222425  0.96523353     0.05850
H488        H  0.09988015  0.61008775  0.90831751     0.05700
C489        C  0.04670343  0.96013003  0.21059771     0.02730
C490        C  0.02577411  0.92351328  0.18972827    -0.13420
C491        C  0.04551210  0.90897856  0.16528257     0.00230
C492        C  0.08529550  0.93057181  0.16336431    -0.11940
C493        C  0.10595919  0.96765958  0.18051283     0.02730
C494        C  0.08667948  0.98260965  0.20375754    -0.11360
H495        H  0.49493666  0.90676487  0.19241956     0.08320
H496        H  0.10036026  0.91930680  0.14455229     0.05850
H497        H  0.10311791  0.51141635  0.21734931     0.05700
C498        C  0.22711411  0.51297146  0.06096368     0.00170
C499        C  0.25626856  0.50493801  0.06015598     0.00170
C500        C  0.04628140  0.62413813  0.21541777     0.02730
C501        C  0.02565824  0.64369500  0.20982352    -0.13420
C502        C  0.04191123  0.67923545  0.18691789     0.00230
C503        C  0.08032091  0.69663827  0.17452274    -0.11940
C504        C  0.10001903  0.67663131  0.17449696     0.02730
C505        C  0.08303673  0.64006561  0.19545854    -0.11360
H506        H  0.49712792  0.63130041  0.22343712     0.08320
H507        H  0.09421944  0.72483058  0.15873634     0.05850
H508        H  0.09814341  0.62435249  0.19626354     0.05700
C509        C  0.50169799  0.74755243  0.04817394     0.00170
C510        C  0.50361854  0.78261165  0.04320995     0.00170
C511        C  0.22579090  0.74424885  0.04903525     0.00170
C512        C  0.26326087  0.77383601  0.04879754     0.00170
O513        O  0.05810480  0.51278106  0.83978822    -0.85750
O514        O  0.48622747  0.94911377  0.85646241    -0.82790
C515        C  0.45037238  0.92739074  0.85734748     0.97720
O516        O  0.42942723  0.93661795  0.83598232    -0.82820
O517        O  0.43874945  0.50813169  0.86144349    -0.85470
C518        C  0.45437291  0.54428791  0.86586221     1.02240
O519        O  0.48363871  0.56666988  0.84281582    -0.78230
O520        O  0.04615449  0.55771626  0.86098957    -0.78420
C521        C  0.06562785  0.54129663  0.86418382     1.02190
O522        O  0.04350817  0.50334262  0.74658525    -0.85740
O523        O  0.47388769  0.93730861  0.76299239    -0.82810
C524        C  0.44626385  0.93427438  0.74037436     0.97740
O525        O  0.43476311  0.95792131  0.74532827    -0.82830
O526        O  0.43797733  0.52620745  0.76946486    -0.85440
C527        C  0.46182639  0.55466694  0.74617490     1.02210
O528        O  0.49721162  0.56684863  0.74938687    -0.78260
O529        O  0.06273621  0.56259961  0.76767395    -0.78410
C530        C  0.06721835  0.53901653  0.74426208     1.02170
Cr531      Cr  0.01328547  0.97839114  0.80162337     1.93740
Cr532      Cr  0.44010225  0.98450356  0.80324092     1.93210
Cr533      Cr  0.01986313  0.55869163  0.80499996     1.39100
O534        O  0.49114173  0.50722945  0.80295210    -1.23490
C535        C  0.44651811  0.57353659  0.71666847     0.02730
C536        C  0.40941062  0.55037561  0.69903088    -0.13420
C537        C  0.39187920  0.56727609  0.67569992     0.00230
C538        C  0.41051868  0.60715627  0.67164674    -0.11940
C539        C  0.44853036  0.63110715  0.68463066     0.02730
C540        C  0.46647889  0.61399841  0.70843446    -0.11360
H541        H  0.39466368  0.51925832  0.70239456     0.08320
H542        H  0.39606533  0.61900244  0.65269339     0.05850
H543        H  0.49493714  0.63168997  0.72157328     0.05700
C544        C  0.38510540  0.94803929  0.39716418     0.02730
C545        C  0.37045626  0.97030260  0.41550746    -0.13420
C546        C  0.33569132  0.95220058  0.43876117     0.00230
C547        C  0.31486123  0.91224364  0.44154754    -0.11940
C548        C  0.33017100  0.88958342  0.42845525     0.02730
C549        C  0.36536049  0.90762233  0.40493131    -0.11360
H550        H  0.38641833  0.50146794  0.41264497     0.08320
H551        H  0.28817272  0.89925884  0.46019210     0.05850
H552        H  0.37677997  0.89052690  0.39179087     0.05700
C553        C  0.10235346  0.55416146  0.71660587     0.02730
C554        C  0.11883697  0.59174141  0.69874925    -0.13420
C555        C  0.15461498  0.60876037  0.67790887     0.00230
C556        C  0.17526910  0.58991159  0.67873283    -0.11940
C557        C  0.15822433  0.55105352  0.69077104     0.02730
C558        C  0.12128442  0.53299865  0.71035930    -0.11360
H559        H  0.10335265  0.60710301  0.69978211     0.08320
H560        H  0.20304017  0.60432257  0.66265643     0.05850
H561        H  0.10778197  0.50319671  0.72122905     0.05700
C562        C  0.05733234  0.96535996  0.39220524     0.02730
C563        C  0.03446649  0.92752954  0.40915522    -0.13420
C564        C  0.05091473  0.90996092  0.43327617     0.00230
C565        C  0.09018289  0.92918021  0.43901693    -0.11940
C566        C  0.11381535  0.96772623  0.42624728     0.02730
C567        C  0.09719545  0.98582615  0.40157521    -0.11360
H568        H  0.50375030  0.91216389  0.40479168     0.08320
H569        H  0.10162455  0.91468608  0.45874828     0.05850
H570        H  0.11482880  0.51488793  0.38898125     0.05700
C571        C  0.47800696  0.74114158  0.54793808     0.00170
C572        C  0.47587675  0.77422008  0.54519806     0.00170
C573        C  0.26199227  0.50489130  0.55917883     0.00170
C574        C  0.22651174  0.50167645  0.56021184     0.00170
C575        C  0.03923667  0.62198537  0.39264569     0.02730
C576        C  0.01881151  0.64149039  0.39943586    -0.13420
C577        C  0.03629257  0.67740923  0.42158609     0.00230
C578        C  0.07396500  0.69304868  0.43587172    -0.11940
C579        C  0.09254348  0.67206374  0.43444736     0.02730
C580        C  0.07595801  0.63718019  0.41134447    -0.11360
H581        H  0.48984660  0.62907202  0.38727270     0.08320
H582        H  0.08726660  0.71940811  0.45515218     0.05850
H583        H  0.09079115  0.62119373  0.40955074     0.05700
C584        C  0.42566711  0.90012781  0.71142948     0.02730
C585        C  0.38543604  0.88110193  0.70742252    -0.13420
C586        C  0.36540286  0.84463385  0.68702125     0.00230
C587        C  0.38612997  0.82820882  0.67081605    -0.11940
C588        C  0.42579975  0.84785688  0.67077926     0.02730
C589        C  0.44581437  0.88367508  0.69190258    -0.11360
H590        H  0.36983322  0.89404908  0.72097026     0.08320
H591        H  0.37153339  0.80116032  0.65289043     0.05850
H592        H  0.47675167  0.89891243  0.69249471     0.05700
C593        C  0.24870805  0.77571826  0.56092046     0.00170
C594        C  0.21643069  0.73990279  0.55953761     0.00170
O595        O  0.42241962  0.49457634  0.34262721    -0.85750
O596        O  0.48854768  0.56444628  0.36013254    -0.82790
C597        C  0.02407826  0.58749405  0.36378964     0.97720
O598        O  0.04774828  0.58296705  0.34094600    -0.82820
O599        O  0.05123391  0.51676231  0.35891066    -0.85470
C600        C  0.03868566  0.98101767  0.36279325     1.02240
O601        O  0.50994748  0.95714227  0.34053806    -0.78230
O602        O  0.44203686  0.95505780  0.36325908    -0.78420
C603        C  0.41880135  0.96707213  0.36688942     1.02190
O604        O  0.43729763  0.50761254  0.24905229    -0.85740
O605        O  0.50038526  0.58007106  0.26733595    -0.82810
C606        C  0.02964207  0.58859075  0.24401184     0.97740
O607        O  0.04546538  0.56859071  0.24728404    -0.82830
O608        O  0.05100022  0.50398423  0.26545153    -0.85440
C609        C  0.02893969  0.97488424  0.24225756     1.02210
O610        O  0.49323048  0.95790361  0.24808048    -0.78260
O611        O  0.42357114  0.94992610  0.27117734    -0.78410
C612        C  0.41726713  0.97129966  0.24603545     1.02170
Cr613      Cr  0.46471039  0.53444170  0.30474642     1.93740
Cr614      Cr  0.04396055  0.54034840  0.30335398     1.93210
Cr615      Cr  0.46952878  0.96001075  0.30583665     1.39100
O616        O  0.49281900  0.51169214  0.30496901    -1.23490
C617        C  0.27077795  0.79152296  0.60385139    -0.06520
C618        C  0.28077614  0.76926788  0.63084376    -0.17650
C619        C  0.30354858  0.78493991  0.66864028     0.10680
C620        C  0.32449033  0.82545595  0.67363511    -0.06450
C621        C  0.31192498  0.84722670  0.65020124    -0.17680
C622        C  0.28364579  0.82999620  0.61708699     0.10710
S623        S  0.30923399  0.75275912  0.70599860    -0.32650
S624        S  0.26491526  0.85758244  0.59141061    -0.32650
H625        H  0.28170012  0.88875150  0.62137328     0.28720
H626        H  0.32704519  0.78007408  0.74027586     0.28710
H627        H  0.27201676  0.73989258  0.62236163     0.19310
H628        H  0.32628694  0.87811100  0.65494583     0.19310
C629        C  0.12462006  0.68413929  0.46580145    -0.06520
C630        C  0.16156846  0.69529639  0.45053940    -0.17650
C631        C  0.19312906  0.71399678  0.47965647     0.10680
C632        C  0.18765866  0.72513191  0.52285223    -0.06450
C633        C  0.15044831  0.71354040  0.53717871    -0.17680
C634        C  0.11917836  0.69081706  0.51083705     0.10710
S635        S  0.23896550  0.72138275  0.46233467    -0.32650
S636        S  0.07268709  0.67098993  0.53688812    -0.32650
H637        H  0.05447196  0.63815159  0.50952980     0.28720
H638        H  0.22755564  0.70460122  0.41969971     0.28710
H639        H  0.16552945  0.68936519  0.41617744     0.19310
H640        H  0.14534219  0.71991480  0.57087792     0.19310
C641        C  0.46008127  0.78798846  0.58130662    -0.06520
C642        C  0.47701773  0.79786896  0.62421139    -0.17650
C643        C  0.46756539  0.81834735  0.65477330     0.10680
C644        C  0.44365683  0.83235570  0.64059694    -0.06450
C645        C  0.42948764  0.82496788  0.59674957    -0.17680
C646        C  0.43502664  0.80105046  0.56864983     0.10710
S647        S  0.48676690  0.82555845  0.71065192    -0.32650
S648        S  0.40893862  0.78846711  0.51674706    -0.32650
H649        H  0.39747024  0.74933072  0.52003789     0.28720
H650        H  0.45609867  0.82565031  0.73239866     0.28710
H651        H  0.49783049  0.78995192  0.63375794     0.19310
H652        H  0.41100863  0.83547350  0.58547633     0.19310
C653        C  0.98893908  0.72632389  0.50755460    -0.06520
C654        C  0.02285049  0.75010773  0.48358500    -0.17650
C655        C  0.03368812  0.73594246  0.44718420     0.10680
C656        C  0.01486171  0.69561632  0.43968342    -0.06450
C657        C  0.47996623  0.67211342  0.46180206    -0.17680
C658        C  0.46611123  0.68747975  0.49377796     0.10710
S659        S  0.07263026  0.77054537  0.41236115    -0.32650
S660        S  0.41927412  0.65602369  0.51643909    -0.32650
H661        H  0.40496926  0.67954523  0.50244866     0.28720
H662        H  0.06453959  0.74538857  0.37601046     0.28710
H663        H  0.04122631  0.77990546  0.49289418     0.19310
H664        H  0.46424172  0.64132118  0.45599643     0.19310
C665        C  0.99685129  0.80553615  0.51071719    -0.06520
C666        C  0.02319768  0.84138200  0.52933427    -0.17650
C667        C  0.03533394  0.87545219  0.50620589     0.10680
C668        C  0.02824646  0.87449257  0.45994506    -0.06450
C669        C  0.50485075  0.83890399  0.43920333    -0.17680
C670        C  0.48753896  0.80440025  0.46436686     0.10710
S671        S  0.05823569  0.91945979  0.53833958    -0.32650
S672        S  0.45430382  0.76144663  0.43456616    -0.32650
H673        H  0.43528467  0.73948224  0.47230423     0.28720
H674        H  0.04699582  0.94013366  0.51035535     0.28710
H675        H  0.03127824  0.84331487  0.56426411     0.19310
H676        H  0.49968917  0.83809460  0.40344904     0.19310
C677        C  0.20368139  0.99629373  0.51791849    -0.06520
C678        C  0.19167440  0.52317689  0.50999889    -0.17650
C679        C  0.16626512  0.51841890  0.47535032     0.10680
C680        C  0.15349199  0.98709065  0.44567226    -0.06450
C681        C  0.17120423  0.96468877  0.44857733    -0.17680
C682        C  0.19244129  0.96606067  0.48636497     0.10710
S683        S  0.14850302  0.55113810  0.47326545    -0.32650
S684        S  0.19740099  0.92429660  0.49455790    -0.32650
H685        H  0.20489910  0.92880718  0.54062461     0.28720
H686        H  0.16300824  0.56393168  0.42973080     0.28710
H687        H  0.20061371  0.54720356  0.53265244     0.19310
H688        H  0.16235187  0.94086910  0.42555508     0.19310
C689        C  0.17681529  0.52986186  0.67266331    -0.06520
C690        C  0.15466212  0.49625817  0.64774750    -0.17650
C691        C  0.17144337  0.48461120  0.61487223     0.10680
C692        C  0.21038405  0.50897622  0.60253063    -0.06450
C693        C  0.23275313  0.54111828  0.62982089    -0.17680
C694        C  0.21706919  0.54893786  0.66731653     0.10710
S695        S  0.14189872  0.93817074  0.59003188    -0.32650
S696        S  0.24964048  0.58500897  0.70604424    -0.32650
H697        H  0.22261001  0.57467642  0.74082543     0.28720
H698        H  0.16829400  0.92637543  0.59949452     0.28710
H699        H  0.12395644  0.97991420  0.65220596     0.19310
H700        H  0.26250283  0.56076917  0.62218274     0.19310
C701        C  0.16918372  0.64311125  0.64869483    -0.06520
C702        C  0.17305365  0.67762062  0.66482610    -0.17650
C703        C  0.18944866  0.71098567  0.63784653     0.10680
C704        C  0.20509059  0.71027862  0.59542662    -0.06450
C705        C  0.20262757  0.67613336  0.58089326    -0.17680
C706        C  0.18246530  0.64230886  0.60505105     0.10710
S707        S  0.18828715  0.75223256  0.65932186    -0.32650
S708        S  0.17242572  0.59870047  0.57640334    -0.32650
H709        H  0.13656581  0.57521570  0.59683630     0.28720
H710        H  0.19231554  0.77100815  0.61821683     0.28710
H711        H  0.16262804  0.67834549  0.69809647     0.19310
H712        H  0.21338165  0.67492699  0.54797820     0.19310
C713        C  0.26739533  0.79894097  0.51904252    -0.06520
C714        C  0.30653689  0.81183406  0.51293459    -0.17650
C715        C  0.32810635  0.83766945  0.47851855     0.10680
C716        C  0.31001425  0.84926026  0.44690413    -0.06450
C717        C  0.26972774  0.83014672  0.44796084    -0.17680
C718        C  0.24910410  0.80940390  0.48604996     0.10710
S719        S  0.37904306  0.85834771  0.48028822    -0.32650
S720        S  0.20274247  0.80470067  0.49315289    -0.32650
H721        H  0.20062212  0.80009533  0.53993889     0.28720
H722        H  0.38053798  0.84588161  0.43672862     0.28710
H723        H  0.32115674  0.80366582  0.53703681     0.19310
H724        H  0.25533019  0.83848913  0.42371234     0.19310
C725        C  0.27636486  0.99011439  0.52242447    -0.06520
C726        C  0.28884185  0.96528048  0.53772067    -0.17650
C727        C  0.31522796  0.96050499  0.51372812     0.10680
C728        C  0.32270347  0.97252992  0.46858703    -0.06450
C729        C  0.30939088  0.99612936  0.45152739    -0.17680
C730        C  0.28853500  0.00739471  0.47931011     0.10710
S731        S  0.33902065  0.93902059  0.54256075    -0.32650
S732        S  0.28041377  0.04534495  0.46079090    -0.32650
H733        H  0.29938338  0.05228953  0.41925598     0.28720
H734        H  0.37149611  0.95525972  0.51457844     0.28710
H735        H  0.28156562  0.45321548  0.57133800     0.19310
H736        H  0.31567876  0.00590687  0.41700190     0.19310
C737        C  0.46755216  0.67178386  0.66635155    -0.06520
C738        C  0.44441152  0.68852242  0.66301299    -0.17650
C739        C  0.44404072  0.70768538  0.62374117     0.10680
C740        C  0.47419838  0.71992932  0.59181830    -0.06450
C741        C  0.50266029  0.71053092  0.60111897    -0.17680
C742        C  0.49917298  0.68605293  0.63694098     0.10710
S743        S  0.40029180  0.70786125  0.61428485    -0.32650
S744        S  0.03458528  0.67215179  0.64168607    -0.32650
H745        H  0.04321664  0.68495696  0.68626577     0.28720
H746        H  0.40279854  0.70830598  0.56759144     0.28710
H747        H  0.42072825  0.67908422  0.68633274     0.19310
H748        H  0.02693517  0.72052256  0.57866480     0.19310
C749        C  0.35772874  0.54539679  0.64733381    -0.06520
C750        C  0.32150039  0.51992084  0.66553202    -0.17650
C751        C  0.28852148  0.50583334  0.63854776     0.10680
C752        C  0.29164973  0.52244327  0.59534926    -0.06450
C753        C  0.32820789  0.54967501  0.57932910    -0.17680
C754        C  0.36059971  0.55648836  0.60209091     0.10710
S755        S  0.24417192  0.46517203  0.65802978    -0.32650
S756        S  0.40504779  0.57764248  0.57119090    -0.32650
H757        H  0.42245987  0.56256854  0.59877128     0.28720
H758        H  0.25805141  0.46010570  0.69913727     0.28710
H759        H  0.31927993  0.51054252  0.70007496     0.19310
H760        H  0.33174446  0.56128293  0.54562444     0.19310
C761        C  0.13476860  0.69346898  0.14514923    -0.06520
C762        C  0.13104820  0.70697233  0.10293850    -0.17650
C763        C  0.16246036  0.73065947  0.07654393     0.10680
C764        C  0.19842935  0.73582630  0.08720175    -0.06450
C765        C  0.20278743  0.72157312  0.12882533    -0.17680
C766        C  0.17160109  0.70196341  0.15878237     0.10710
S767        S  0.15490793  0.75347239  0.02889848    -0.32650
S768        S  0.18058886  0.68862001  0.21313345    -0.32650
H769        H  0.15285029  0.69309663  0.23612419     0.28720
H770        H  0.18896780  0.78861359  0.03595680     0.28710
H771        H  0.10330875  0.70110314  0.09152178     0.19310
H772        H  0.23013220  0.72475235  0.13733775     0.19310
C773        C  0.02000431  0.69705326  0.16806530    -0.06520
C774        C  0.04021767  0.73749886  0.16306621    -0.17650
C775        C  0.03822200  0.75469153  0.12298841     0.10680
C776        C  0.00746784  0.73325532  0.09294726    -0.06450
C777        C  0.98112948  0.69457064  0.10461303    -0.17680
C778        C  0.98797551  0.67590900  0.14006023     0.10710
S779        S  0.08034280  0.80028320  0.10972044    -0.32650
S780        S  0.95739565  0.62452823  0.14389432    -0.32650
H781        H  0.94496842  0.62646338  0.18738618     0.28720
H782        H  0.07794250  0.79435359  0.06342199     0.28710
H783        H  0.06384606  0.75459695  0.18543893     0.19310
H784        H  0.95656448  0.67755889  0.08347897     0.19310
C785        C  0.14698991  0.99051814  0.16863587    -0.06520
C786        C  0.16003496  0.52368206  0.14195341    -0.17650
C787        C  0.19056142  0.53476809  0.11181097     0.10680
C788        C  0.20520934  0.00985282  0.10401114    -0.06450
C789        C  0.19428993  0.97930709  0.13504631    -0.17680
C790        C  0.16858961  0.97223219  0.16966644     0.10710
S791        S  0.20908583  0.58038437  0.08359961    -0.32650
S792        S  0.15932228  0.93450651  0.20963697    -0.32650
H793        H  0.14008978  0.94488764  0.24083197     0.28720
H794        H  0.24717629  0.59046168  0.09089379     0.28710
H795        H  0.14501007  0.53949771  0.14235639     0.19310
H796        H  0.20282192  0.95844937  0.13205872     0.19310
C797        C  0.02771403  0.87465991  0.13548326    -0.06520
C798        C  0.04230511  0.88157933  0.09157046    -0.17650
C799        C  0.04025225  0.85233933  0.06528605     0.10680
C800        C  0.01669792  0.81332063  0.07864327    -0.06450
C801        C  0.99839969  0.80570467  0.12098538    -0.17680
C802        C  0.00545803  0.83598579  0.15048464     0.10710
S803        S  0.06930107  0.86751656  0.01508694    -0.32650
S804        S  0.98552070  0.82343364  0.20622462    -0.32650
H805        H  0.01581901  0.85522197  0.22770205     0.28720
H806        H  0.07497378  0.83598975  0.01414059     0.28710
H807        H  0.05951475  0.91102513  0.07944055     0.19310
H808        H  0.47872366  0.77622565  0.13116337     0.19310
C809        C  0.16183315  0.64512584  0.96502821    -0.06520
C810        C  0.17895974  0.68143132  0.94414996    -0.17650
C811        C  0.20057424  0.71537994  0.96906213     0.10680
C812        C  0.20877786  0.71237206  0.01502385    -0.06450
C813        C  0.19292521  0.67525968  0.03403283    -0.17680
C814        C  0.16663490  0.64274952  0.01132946     0.10710
S815        S  0.21557193  0.75992936  0.93913261    -0.32650
S816        S  0.13990397  0.59861314  0.04333973    -0.32650
H817        H  0.10869946  0.58111508  0.01388510     0.28720
H818        H  0.22291605  0.78328187  0.97657312     0.28710
H819        H  0.17540896  0.68328693  0.90836181     0.19310
H820        H  0.19841564  0.67159976  0.06869957     0.19310
C821        C  0.16973539  0.53036877  0.94821725    -0.06520
C822        C  0.21002901  0.55065066  0.94905117    -0.17650
C823        C  0.23014449  0.54742788  0.98542121     0.10680
C824        C  0.21018996  0.51820820  0.01830227    -0.06450
C825        C  0.17051472  0.49339083  0.01258809    -0.17680
C826        C  0.15013446  0.49972229  0.97908661     0.10710
S827        S  0.27905904  0.58613945  0.99047215    -0.32650
S828        S  0.09887763  0.97122134  0.98155835    -0.32650
H829        H  0.09613849  0.45725063  0.93775750     0.28720
H830        H  0.28226700  0.58305156  0.03685875     0.28710
H831        H  0.22549166  0.57430320  0.92554750     0.19310
H832        H  0.15466286  0.97030592  0.03663266     0.19310
C833        C  0.32502725  0.85879988  0.15011227    -0.06520
C834        C  0.34287067  0.84191756  0.12725046    -0.17650
C835        C  0.32137287  0.80976421  0.09951768     0.10680
C836        C  0.28265271  0.79773366  0.08985567    -0.06450
C837        C  0.26454643  0.81248670  0.11665126    -0.17680
C838        C  0.28469363  0.83998301  0.14941216     0.10710
S839        S  0.34350623  0.78437182  0.07672296    -0.32650
S840        S  0.25782098  0.85196272  0.18763017    -0.32650
H841        H  0.28727970  0.87055456  0.21918487     0.28720
H842        H  0.37720023  0.80349030  0.10214606     0.28710
H843        H  0.37358000  0.85493536  0.12923731     0.19310
H844        H  0.23519050  0.80445800  0.11113240     0.19310
C845        C  0.26676186  0.99047516  0.10053102    -0.06520
C846        C  0.29363387  0.51661397  0.13113739    -0.17650
C847        C  0.31920547  0.50787178  0.15233802     0.10680
C848        C  0.31238481  0.96959547  0.15021127    -0.06450
C849        C  0.27765715  0.94155009  0.13059467    -0.17680
C850        C  0.25720782  0.95177855  0.10252784     0.10710
S851        S  0.36178067  0.54815653  0.17454615    -0.32650
S852        S  0.22037303  0.91405906  0.06892344    -0.32650
H853        H  0.19705785  0.93032280  0.06527268     0.28720
H854        H  0.38626634  0.53851898  0.15206387     0.28710
H855        H  0.29906659  0.54588341  0.13225624     0.19310
H856        H  0.26807614  0.91126564  0.13270372     0.19310
C857        C  0.33830132  0.81320951  0.93224719    -0.06520
C858        C  0.33068212  0.83855662  0.95614362    -0.17650
C859        C  0.30428713  0.82570318  0.99141854     0.10680
C860        C  0.28644075  0.78671085  0.00607843    -0.06450
C861        C  0.29218576  0.76078409  0.98048891    -0.17680
C862        C  0.31583078  0.77318112  0.94217218     0.10710
S863        S  0.29550411  0.86125198  0.01648267    -0.32650
S864        S  0.31655613  0.73762300  0.90588485    -0.32650
H865        H  0.29044875  0.70483399  0.93069051     0.28720
H866        H  0.25728544  0.83537775  0.02815089     0.28710
H867        H  0.34675780  0.86919490  0.94906605     0.19310
H868        H  0.27851558  0.73087606  0.99073385     0.19310
C869        C  0.45936912  0.82667369  0.94434589    -0.06520
C870        C  0.48358671  0.81372674  0.92910450    -0.17650
C871        C  0.49852733  0.79786252  0.95954350     0.10680
C872        C  0.48573122  0.79181029  0.00491894    -0.06450
C873        C  0.45898998  0.80216999  0.01805566    -0.17680
C874        C  0.44933512  0.82306117  0.99002145     0.10710
S875        S  0.53439933  0.78726764  0.94036122    -0.32650
S876        S  0.42464440  0.84524778  0.01488454    -0.32650
H877        H  0.43955873  0.87698147  0.98535603     0.28720
H878        H  0.53621962  0.79954472  0.89570196     0.28710
H879        H  0.49092565  0.81644562  0.89379897     0.19310
H880        H  0.44865751  0.79767884  0.05238959     0.19310
C881        C  0.46039743  0.65908013  0.94434746    -0.06520
C882        C  0.49440425  0.66979798  0.96741090    -0.17650
C883        C  0.50938763  0.70002531  0.99846124     0.10680
C884        C  0.48897316  0.71883416  0.00988307    -0.06450
C885        C  0.45521743  0.70833461  0.98600772    -0.17680
C886        C  0.44288617  0.68148219  0.95111705     0.10710
S887        S  0.05448564  0.71276264  0.02313877    -0.32650
S888        S  0.40448006  0.67705617  0.91644153    -0.32650
H889        H  0.41217856  0.65977764  0.88011360     0.28720
H890        H  0.07088422  0.75152507  0.00984942     0.28710
H891        H  0.00867537  0.65348754  0.96284881     0.19310
H892        H  0.43799889  0.72092330  0.99425217     0.19310
C893        C  0.28560895  0.51620005  0.02330847    -0.06520
C894        C  0.32311909  0.54306801  0.03632627    -0.17650
C895        C  0.35460865  0.54900950  0.01221871     0.10680
C896        C  0.34995157  0.53535153  0.96797092    -0.06450
C897        C  0.31279371  0.50999690  0.95245699    -0.17680
C898        C  0.28053785  0.49857924  0.98045960     0.10710
S899        S  0.40054952  0.57663978  0.03926846    -0.32650
S900        S  0.23510693  0.96301136  0.95776050    -0.32650
H901        H  0.21309854  0.95632035  0.99619335     0.28720
H902        H  0.41898686  0.56165645  0.01342523     0.28710
H903        H  0.32867367  0.55940177  0.06669001     0.19310
H904        H  0.30887243  0.49954761  0.91831580     0.19310
C905        C  0.93701702  0.06150796  0.89495274     0.02730
C906        C  0.90026942  0.03844401  0.91418680    -0.13420
C907        C  0.88275819  0.05605834  0.93673199     0.00230
C908        C  0.90087739  0.09622417  0.93765456    -0.11940
C909        C  0.93887499  0.11948473  0.92455742     0.02730
C910        C  0.95669150  0.10199327  0.90205593    -0.11360
H911        H  0.88585194  0.00729305  0.91254669     0.08320
H912        H  0.88703986  0.10887281  0.95618951     0.05850
H913        H  0.98593961  0.11983295  0.89065895     0.05700
C914        C  0.93253425  0.38912039  0.87977156     0.02730
C915        C  0.95537179  0.37411440  0.89409591    -0.13420
C916        C  0.93830396  0.33723794  0.91311105     0.00230
C917        C  0.89860315  0.31453146  0.91574452    -0.11940
C918        C  0.87540679  0.33009267  0.90695728     0.02730
C919        C  0.89246772  0.36694410  0.88647486    -0.11360
H920        H  0.98624834  0.39169722  0.89291687     0.08320
H921        H  0.88704555  0.28766253  0.93421251     0.05850
H922        H  0.87491625  0.37923929  0.87822017     0.05700
C923        C  0.88593175  0.45295826  0.21307578     0.02730
C924        C  0.86591284  0.47147298  0.19947596    -0.13420
C925        C  0.83971762  0.45646122  0.16371340     0.00230
C926        C  0.83621728  0.42409416  0.14163183    -0.11940
C927        C  0.84694879  0.40017287  0.16259640     0.02730
C928        C  0.87375345  0.41535281  0.19719414    -0.11360
H929        H  0.87009152  0.99615868  0.21814702     0.08320
H930        H  0.81996326  0.41383122  0.11090846     0.05850
H931        H  0.88464136  0.39812393  0.21166838     0.05700
C932        C  0.59929049  0.05679112  0.89445276     0.02730
C933        C  0.61789097  0.03553665  0.90337102    -0.13420
C934        C  0.65129774  0.05162289  0.92973645     0.00230
C935        C  0.66657034  0.08939827  0.94451545    -0.11940
C936        C  0.64774256  0.10981756  0.93837634     0.02730
C937        C  0.61425984  0.09387123  0.91303980    -0.11360
H938        H  0.60644493  0.00686212  0.88994915     0.08320
H939        H  0.69197458  0.10220925  0.96524427     0.05850
H940        H  0.59988679  0.11008140  0.90832395     0.05700
C941        C  0.54669795  0.46012854  0.21060518     0.02730
C942        C  0.52576923  0.42351094  0.18973801    -0.13420
C943        C  0.54550822  0.40897437  0.16529826     0.00230
C944        C  0.58529173  0.43056603  0.16338419    -0.11940
C945        C  0.60595501  0.46765573  0.18052759     0.02730
C946        C  0.58667431  0.48260767  0.20376674    -0.11360
H947        H  0.99493156  0.40676345  0.19242621     0.08320
H948        H  0.60035634  0.41929925  0.14457518     0.05850
H949        H  0.60312376  0.01141696  0.21734356     0.05700
C950        C  0.72712517  0.01297456  0.06096331     0.00170
C951        C  0.75627975  0.00494170  0.06015658     0.00170
C952        C  0.54628545  0.12413780  0.21541891     0.02730
C953        C  0.52566354  0.14369606  0.20982455    -0.13420
C954        C  0.54191848  0.17923745  0.18691998     0.00230
C955        C  0.58032864  0.19663956  0.17452731    -0.11940
C956        C  0.60002508  0.17663095  0.17450130     0.02730
C957        C  0.58304106  0.14006467  0.19546104    -0.11360
H958        H  0.99713280  0.13130165  0.22343673     0.08320
H959        H  0.59422862  0.22483216  0.15874148     0.05850
H960        H  0.59814674  0.12435053  0.19626549     0.05700
C961        C  0.00171013  0.24756131  0.04817498     0.00170
C962        C  0.00362744  0.28261934  0.04321441     0.00170
C963        C  0.72579524  0.24424339  0.04903821     0.00170
C964        C  0.76326384  0.27383337  0.04879968     0.00170
O965        O  0.55810802  0.01277530  0.83979186    -0.85750
O966        O  0.98622616  0.44911823  0.85646200    -0.82790
C967        C  0.95037136  0.42739331  0.85734701     0.97720
O968        O  0.92942470  0.43661673  0.83597849    -0.82820
O969        O  0.93876030  0.00813615  0.86145166    -0.85470
C970        C  0.95438642  0.04429272  0.86587015     1.02240
O971        O  0.98365048  0.06667278  0.84282023    -0.78230
O972        O  0.54616294  0.05771465  0.86099146    -0.78420
C973        C  0.56563332  0.04129196  0.86418677     1.02190
O974        O  0.54351380  0.00334012  0.74658784    -0.85740
O975        O  0.97388570  0.43730768  0.76299265    -0.82810
C976        C  0.94626239  0.43427191  0.74037227     0.97740
O977        O  0.93476111  0.45791865  0.74532269    -0.82830
O978        O  0.93798599  0.02621300  0.76947306    -0.85440
C979        C  0.96183532  0.05467012  0.74618025     1.02210
O980        O  0.99722019  0.06684937  0.74939030    -0.78260
O981        O  0.56274324  0.06259742  0.76767586    -0.78410
C982        C  0.56722446  0.03901390  0.74426390     1.02170
Cr983      Cr  0.51328220  0.47839380  0.80162156     1.93740
Cr984      Cr  0.94009605  0.48450022  0.80323452     1.93210
Cr985      Cr  0.51987175  0.05869146  0.80500280     1.39100
O986        O  0.99114783  0.00722946  0.80295564    -1.23490
C987        C  0.94652772  0.07353928  0.71667202     0.02730
C988        C  0.90942061  0.05037772  0.69903357    -0.13420
C989        C  0.89188977  0.06727745  0.67569990     0.00230
C990        C  0.91052940  0.10715746  0.67164478    -0.11940
C991        C  0.94854025  0.13110899  0.68463116     0.02730
C992        C  0.96648853  0.11400099  0.70843697    -0.11360
H993        H  0.89467359  0.01926054  0.70239871     0.08320
H994        H  0.89607665  0.11900320  0.65268940     0.05850
H995        H  0.99494640  0.13169301  0.72157669     0.05700
C996        C  0.88509594  0.44804227  0.39716118     0.02730
C997        C  0.87044582  0.47030522  0.41550294    -0.13420
C998        C  0.83568001  0.45220276  0.43875487     0.00230
C999        C  0.81485006  0.41224574  0.44154063    -0.11940
C1000       C  0.83016144  0.38958607  0.42845168     0.02730
C1001       C  0.86535150  0.40762543  0.40492893    -0.11360
H1002       H  0.88642874  0.00146530  0.41264886     0.08320
H1003       H  0.78816104  0.39926093  0.46018411     0.05850
H1004       H  0.87677202  0.39053043  0.39179014     0.05700
C1005       C  0.60235851  0.05415886  0.71660521     0.02730
C1006       C  0.61883991  0.09173834  0.69874752    -0.13420
C1007       C  0.65461691  0.10875819  0.67790461     0.00230
C1008       C  0.67527230  0.08991073  0.67872642    -0.11940
C1009       C  0.65822992  0.05105331  0.69076644     0.02730
C1010       C  0.62129075  0.03299734  0.71035726    -0.11360
H1011       H  0.60335473  0.10709903  0.69978180     0.08320
H1012       H  0.70304258  0.10432226  0.66264804     0.05850
H1013       H  0.60779006  0.00319581  0.72122811     0.05700
C1014       C  0.55732120  0.46535718  0.39220709     0.02730
C1015       C  0.53445548  0.42752582  0.40915484    -0.13420
C1016       C  0.55090410  0.40995625  0.43327338     0.00230
C1017       C  0.59017235  0.42917570  0.43901372    -0.11940
C1018       C  0.61380411  0.46772277  0.42624775     0.02730
C1019       C  0.59718406  0.48582338  0.40157770    -0.11360
H1020       H  0.00373928  0.41216024  0.40479143     0.08320
H1021       H  0.60161432  0.41468097  0.45874339     0.05850
H1022       H  0.61484037  0.01488989  0.38897655     0.05700
C1023       C  0.97800851  0.24113916  0.54793849     0.00170
C1024       C  0.97587624  0.27421659  0.54519826     0.00170
C1025       C  0.76200318  0.00489332  0.55917861     0.00170
C1026       C  0.72652279  0.00167894  0.56021018     0.00170
C1027       C  0.53923948  0.12198406  0.39264365     0.02730
C1028       C  0.51881229  0.14148707  0.39943463    -0.13420
C1029       C  0.53629233  0.17740655  0.42158365     0.00230
C1030       C  0.57396554  0.19304844  0.43586732    -0.11940
C1031       C  0.59254553  0.17206498  0.43444329     0.02730
C1032       C  0.57596135  0.13718112  0.41134133    -0.11360
H1033       H  0.98984675  0.12906676  0.38727298     0.08320
H1034       H  0.58726656  0.21940836  0.45514691     0.05850
H1035       H  0.59079586  0.12119601  0.40954780     0.05700
C1036       C  0.92566620  0.40012380  0.71142969     0.02730
C1037       C  0.88543516  0.38109742  0.70742309    -0.13420
C1038       C  0.86540202  0.34462874  0.68702339     0.00230
C1039       C  0.88612927  0.32820319  0.67082009    -0.11940
C1040       C  0.92579914  0.34785183  0.67078232     0.02730
C1041       C  0.94581370  0.38367081  0.69190412    -0.11360
H1042       H  0.86983231  0.39404501  0.72096955     0.08320
H1043       H  0.87153285  0.30115421  0.65289548     0.05850
H1044       H  0.97675102  0.39890877  0.69249557     0.05700
C1045       C  0.74870650  0.27571897  0.56092092     0.00170
C1046       C  0.71642968  0.23990317  0.55953691     0.00170
O1047       O  0.92242589  0.99457199  0.34262757    -0.85750
O1048       O  0.98855210  0.06444315  0.36013231    -0.82790
C1049       C  0.52408243  0.08749228  0.36378846     0.97720
O1050       O  0.54775305  0.08296625  0.34094445    -0.82820
O1051       O  0.55124311  0.01676355  0.35890757    -0.85470
C1052       C  0.53867528  0.48101613  0.36279596     1.02240
O1053       O  0.00993722  0.45714161  0.34054014    -0.78230
O1054       O  0.94202748  0.45505953  0.36325813    -0.78420
C1055       C  0.91879305  0.46707522  0.36688812     1.02190
O1056       O  0.93730351  0.00760890  0.24905257    -0.85740
O1057       O  0.00038876  0.08006919  0.26733607    -0.82810
C1058       C  0.52964542  0.08858951  0.24401143     0.97740
O1059       O  0.54546876  0.06858942  0.24728214    -0.82830
O1060       O  0.55100695  0.00398456  0.26544752    -0.85440
C1061       C  0.52893331  0.47488409  0.24226141     1.02210
O1062       O  0.99322387  0.45790456  0.24808207    -0.78260
O1063       O  0.92356474  0.44992929  0.27117581    -0.78410
C1064       C  0.91726128  0.47130333  0.24603416     1.02170
Cr1065     Cr  0.96471546  0.03443853  0.30474640     1.93740
Cr1066     Cr  0.54396680  0.04034821  0.30335156     1.93210
Cr1067     Cr  0.96952074  0.46001219  0.30583694     1.39100
O1068       O  0.99282553  0.01169057  0.30496832    -1.23490
C1069       C  0.77077724  0.29152206  0.60385157    -0.06520
C1070       C  0.78077530  0.26926566  0.63084168    -0.17650
C1071       C  0.80354764  0.28493584  0.66863858     0.10680
C1072       C  0.82448987  0.32545163  0.67363565    -0.06450
C1073       C  0.81192496  0.34722370  0.65020376    -0.17680
C1074       C  0.78364559  0.32999486  0.61708952     0.10710
S1075       S  0.80923076  0.25275280  0.70599558    -0.32650
S1076       S  0.76491531  0.35758261  0.59141645    -0.32650
H1077       H  0.78170239  0.38875151  0.62137916     0.28720
H1078       H  0.82704187  0.28006638  0.74027420     0.28710
H1079       H  0.77201556  0.23989062  0.62235776     0.19310
H1080       H  0.82628713  0.37810779  0.65495014     0.19310
C1081       C  0.62462164  0.18414150  0.46579798    -0.06520
C1082       C  0.66157050  0.19529996  0.45053664    -0.17650
C1083       C  0.69313034  0.21400009  0.47965463     0.10680
C1084       C  0.68765849  0.22513324  0.52285085    -0.06450
C1085       C  0.65044772  0.21354060  0.53717662    -0.17680
C1086       C  0.61917857  0.19081781  0.51083368     0.10710
S1087       S  0.73896764  0.22138794  0.46233348    -0.32650
S1088       S  0.57268660  0.17098920  0.53688339    -0.32650
H1089       H  0.55447282  0.13815110  0.50952453     0.28720
H1090       H  0.72755930  0.20460866  0.41969726     0.28710
H1091       H  0.66553239  0.18936983  0.41617454     0.19310
H1092       H  0.64534073  0.21991365  0.57087612     0.19310
C1093       C  0.96008095  0.28798451  0.58130776    -0.06520
C1094       C  0.97701898  0.29786649  0.62421169    -0.17650
C1095       C  0.96756649  0.31834439  0.65477421     0.10680
C1096       C  0.94365603  0.33235084  0.64059922    -0.06450
C1097       C  0.92948532  0.32496177  0.59675252    -0.17680
C1098       C  0.93502455  0.30104474  0.56865236     0.10710
S1099       S  0.98677042  0.32555750  0.71065172    -0.32650
S1100       S  0.90893468  0.28845994  0.51675082    -0.32650
H1101       H  0.89746909  0.24932420  0.52004095     0.28720
H1102       H  0.95610251  0.32564875  0.73240010     0.28710
H1103       H  0.99783316  0.28995104  0.63375708     0.19310
H1104       H  0.91100511  0.33546619  0.58548015     0.19310
C1105       C  0.48893947  0.22632070  0.50755454    -0.06520
C1106       C  0.52284881  0.25010479  0.48358149    -0.17650
C1107       C  0.53368532  0.23593881  0.44718026     0.10680
C1108       C  0.51486047  0.19561236  0.43968202    -0.06450
C1109       C  0.97996688  0.17210904  0.46180416    -0.17680
C1110       C  0.96611253  0.18747562  0.49378070     0.10710
S1111       S  0.57262438  0.27054132  0.41235337    -0.32650
S1112       S  0.91927713  0.15601891  0.51644582    -0.32650
H1113       H  0.90496978  0.17953800  0.50245401     0.28720
H1114       H  0.56453264  0.24538302  0.37600401     0.28710
H1115       H  0.54122385  0.27990327  0.49288825     0.19310
H1116       H  0.96424350  0.14131648  0.45600056     0.19310
C1117       C  0.49684811  0.30553229  0.51071610    -0.06520
C1118       C  0.52319317  0.34137925  0.52933191    -0.17650
C1119       C  0.53532550  0.37544863  0.50620337     0.10680
C1120       C  0.52823669  0.37448789  0.45994279    -0.06450
C1121       C  0.00484251  0.33889847  0.43920195    -0.17680
C1122       C  0.98753364  0.30439503  0.46436628     0.10710
S1123       S  0.55822517  0.41945675  0.53833622    -0.32650
S1124       S  0.95429922  0.26143992  0.43456735    -0.32650
H1125       H  0.93528256  0.23947530  0.47230634     0.28720
H1126       H  0.54698265  0.44012842  0.51035202     0.28710
H1127       H  0.53127538  0.34331337  0.56426126     0.19310
H1128       H  0.99967988  0.33808813  0.40344784     0.19310
C1129       C  0.70366939  0.49629084  0.51792099    -0.06520
C1130       C  0.69168831  0.02318110  0.50999465    -0.17650
C1131       C  0.66627968  0.01842362  0.47534540     0.10680
C1132       C  0.65347981  0.48708756  0.44567504    -0.06450
C1133       C  0.67119367  0.46468716  0.44857881    -0.17680
C1134       C  0.69243040  0.46605868  0.48636652     0.10710
S1135       S  0.64852220  0.05114652  0.47325582    -0.32650
S1136       S  0.69739084  0.42429493  0.49455840    -0.32650
H1137       H  0.70488890  0.42880503  0.54062516     0.28720
H1138       H  0.66302508  0.06393411  0.42971907     0.28710
H1139       H  0.70062886  0.04720870  0.53264711     0.19310
H1140       H  0.66234290  0.44086862  0.42555523     0.19310
C1141       C  0.67682286  0.02986337  0.67265899    -0.06520
C1142       C  0.65467100  0.99625907  0.64774372    -0.17650
C1143       C  0.67145346  0.98461278  0.61486919     0.10680
C1144       C  0.71039411  0.00897865  0.60252809    -0.06450
C1145       C  0.73276211  0.04112131  0.62981787    -0.17680
C1146       C  0.71707697  0.04894113  0.66731228     0.10710
S1147       S  0.64188694  0.43816974  0.59003434    -0.32650
S1148       S  0.74964705  0.08501475  0.70603854    -0.32650
H1149       H  0.72261661  0.07468177  0.74081983     0.28720
H1150       H  0.66828226  0.42637369  0.59949297     0.28710
H1151       H  0.62394756  0.47991437  0.65220986     0.19310
H1152       H  0.76251191  0.06077236  0.62218013     0.19310
C1153       C  0.66918363  0.14310921  0.64869112    -0.06520
C1154       C  0.67305374  0.17761822  0.66482401    -0.17650
C1155       C  0.68944809  0.21098380  0.63784530     0.10680
C1156       C  0.70508934  0.21027771  0.59542455    -0.06450
C1157       C  0.70262569  0.17613257  0.58088929    -0.17680
C1158       C  0.68246395  0.14230761  0.60504641     0.10710
S1159       S  0.68828678  0.25223015  0.65932286    -0.32650
S1160       S  0.67242380  0.09869965  0.57639722    -0.32650
H1161       H  0.63656492  0.07521421  0.59683214     0.28720
H1162       H  0.69231336  0.27100588  0.61821841     0.28710
H1163       H  0.66262902  0.17834248  0.69809511     0.19310
H1164       H  0.71337912  0.17492681  0.54797360     0.19310
C1165       C  0.76739199  0.29894377  0.51904365    -0.06520
C1166       C  0.80653351  0.31183818  0.51293286    -0.17650
C1167       C  0.82810079  0.33767381  0.47851596     0.10680
C1168       C  0.81000637  0.34926372  0.44690355    -0.06450
C1169       C  0.76971984  0.33014924  0.44796345    -0.17680
C1170       C  0.74909858  0.30940630  0.48605361     0.10710
S1171       S  0.87903759  0.35835172  0.48028106    -0.32650
S1172       S  0.70273696  0.30470220  0.49316116    -0.32650
H1173       H  0.70061893  0.30009580  0.53994698     0.28720
H1174       H  0.88052895  0.34588162  0.43672250     0.28710
H1175       H  0.82115494  0.30367020  0.53703310     0.19310
H1176       H  0.75532025  0.33849026  0.42371625     0.19310
C1177       C  0.77635420  0.49011396  0.52242325    -0.06520
C1178       C  0.78883215  0.46528036  0.53771750    -0.17650
C1179       C  0.81521797  0.46050572  0.51372321     0.10680
C1180       C  0.82269234  0.47253138  0.46858226    -0.06450
C1181       C  0.80937883  0.49613064  0.45152454    -0.17680
C1182       C  0.78852317  0.50739507  0.47930908     0.10710
S1183       S  0.83901127  0.43902081  0.54255334    -0.32650
S1184       S  0.78040060  0.54534501  0.46079227    -0.32650
H1185       H  0.79936898  0.55229032  0.41925642     0.28720
H1186       H  0.87148649  0.45526113  0.51457062     0.28710
H1187       H  0.78157457  0.95321635  0.57134144     0.19310
H1188       H  0.81566580  0.50590872  0.41699918     0.19310
C1189       C  0.96756124  0.17178608  0.66635360    -0.06520
C1190       C  0.94441934  0.18852324  0.66301601    -0.17650
C1191       C  0.94404599  0.20768431  0.62374370     0.10680
C1192       C  0.97420265  0.21992855  0.59181932    -0.06450
C1193       C  0.00266620  0.21053222  0.60111912    -0.17680
C1194       C  0.99918129  0.18605577  0.63694186     0.10710
S1195       S  0.90029525  0.20785700  0.61428897    -0.32650
S1196       S  0.53459549  0.17215715  0.64168690    -0.32650
H1197       H  0.54322444  0.18495967  0.68626773     0.28720
H1198       H  0.90280082  0.20830167  0.56759545     0.28710
H1199       H  0.92073644  0.17908417  0.68633652     0.19310
H1200       H  0.52694041  0.22052423  0.57866383     0.19310
C1201       C  0.85773924  0.04539738  0.64733408    -0.06520
C1202       C  0.82151051  0.01992371  0.66553294    -0.17650
C1203       C  0.78853165  0.00583679  0.63854864     0.10680
C1204       C  0.79166051  0.02244579  0.59534934    -0.06450
C1205       C  0.82821929  0.04967571  0.57932872    -0.17680
C1206       C  0.86061056  0.05648733  0.60209060     0.10710
S1207       S  0.74418146  0.96517698  0.65803169    -0.32650
S1208       S  0.90505840  0.07763748  0.57119042    -0.32650
H1209       H  0.92246910  0.06256352  0.59877313     0.28720
H1210       H  0.75806063  0.96011087  0.69913952     0.28710
H1211       H  0.81928967  0.01054660  0.70007645     0.19310
H1212       H  0.83175645  0.06128288  0.54562359     0.19310
C1213       C  0.63477392  0.19346662  0.14515315    -0.06520
C1214       C  0.63105302  0.20696846  0.10294177    -0.17650
C1215       C  0.66246487  0.23065398  0.07654617     0.10680
C1216       C  0.69843366  0.23582073  0.08720429    -0.06450
C1217       C  0.70279221  0.22156887  0.12882851    -0.17680
C1218       C  0.67160625  0.20196060  0.15878622     0.10710
S1219       S  0.65491273  0.25346601  0.02889976    -0.32650
S1220       S  0.68059424  0.18861842  0.21313797    -0.32650
H1221       H  0.65285524  0.19309464  0.23612824     0.28720
H1222       H  0.68897166  0.28860782  0.03595893     0.28710
H1223       H  0.60331356  0.20109961  0.09152550     0.19310
H1224       H  0.73013704  0.22474827  0.13734102     0.19310
C1225       C  0.52001358  0.19705669  0.16806466    -0.06520
C1226       C  0.54022762  0.23750249  0.16306698    -0.17650
C1227       C  0.53823216  0.25469716  0.12299057     0.10680
C1228       C  0.50747914  0.23326201  0.09294757    -0.06450
C1229       C  0.48114130  0.19457644  0.10461038    -0.17680
C1230       C  0.48798617  0.17591358  0.14005735     0.10710
S1231       S  0.58035164  0.30029115  0.10972687    -0.32650
S1232       S  0.45740660  0.12453277  0.14388909    -0.32650
H1233       H  0.44497636  0.12646677  0.18737964     0.28720
H1234       H  0.57795303  0.29436501  0.06342780     0.28710
H1235       H  0.56385535  0.25459976  0.18544085     0.19310
H1236       H  0.45657741  0.17756532  0.08347452     0.19310
C1237       C  0.64698494  0.49051521  0.16864616    -0.06520
C1238       C  0.66004322  0.02368617  0.14194453    -0.17650
C1239       C  0.69057252  0.03477254  0.11180649     0.10680
C1240       C  0.70519815  0.50984848  0.10401226    -0.06450
C1241       C  0.69428056  0.47930272  0.13504708    -0.17680
C1242       C  0.66858557  0.47223023  0.16967270     0.10710
S1243       S  0.70910151  0.08038963  0.08359597    -0.32650
S1244       S  0.65932508  0.43450814  0.20964553    -0.32650
H1245       H  0.64009513  0.44489020  0.24084313     0.28720
H1246       H  0.74719054  0.09046814  0.09090551     0.28710
H1247       H  0.64501887  0.03950237  0.14234489     0.19310
H1248       H  0.70281022  0.45844336  0.13205579     0.19310
C1249       C  0.52771175  0.37465819  0.13549589    -0.06520
C1250       C  0.54230477  0.38158186  0.09158394    -0.17650
C1251       C  0.54025632  0.35234508  0.06529743     0.10680
C1252       C  0.51670373  0.31332515  0.07865088    -0.06450
C1253       C  0.49840339  0.30570474  0.12099202    -0.17680
C1254       C  0.50545790  0.33598296  0.15049397     0.10710
S1255       S  0.56930803  0.36752793  0.01510061    -0.32650
S1256       S  0.48551785  0.32342572  0.20623246    -0.32650
H1257       H  0.51580955  0.35521744  0.22771321     0.28720
H1258       H  0.57498268  0.33600243  0.01415080     0.28710
H1259       H  0.55951343  0.41102880  0.07945720     0.19310
H1260       H  0.97872854  0.27622460  0.13116706     0.19310
C1261       C  0.66183894  0.14511645  0.96503615    -0.06520
C1262       C  0.67896352  0.18142115  0.94415617    -0.17650
C1263       C  0.70057780  0.21537099  0.96906645     0.10680
C1264       C  0.70878354  0.21236542  0.01502803    -0.06450
C1265       C  0.69293322  0.17525379  0.03403864    -0.17680
C1266       C  0.66664281  0.14274222  0.01133724     0.10710
S1267       S  0.71557208  0.25991877  0.93913467    -0.32650
S1268       S  0.63991229  0.09860745  0.04335041    -0.32650
H1269       H  0.60870691  0.08110820  0.01389712     0.28720
H1270       H  0.72291754  0.28327317  0.97657367     0.28710
H1271       H  0.67541089  0.18327523  0.90836818     0.19310
H1272       H  0.69842494  0.17159560  0.06870545     0.19310
C1273       C  0.66973760  0.03035652  0.94821553    -0.06520
C1274       C  0.71003108  0.05063843  0.94904402    -0.17650
C1275       C  0.73014946  0.04742132  0.98541449     0.10680
C1276       C  0.71019812  0.01820521  0.01830043    -0.06450
C1277       C  0.67052281  0.99338529  0.01258981    -0.17680
C1278       C  0.65013956  0.99971262  0.97908855     0.10710
S1279       S  0.77906162  0.08613824  0.99046107    -0.32650
S1280       S  0.59887238  0.47123147  0.98155114    -0.32650
H1281       H  0.59613951  0.95724578  0.93776121     0.28720
H1282       H  0.78226668  0.08306045  0.03684995     0.28710
H1283       H  0.72549111  0.07428924  0.92553745     0.19310
H1284       H  0.65465261  0.47030937  0.03662780     0.19310
C1285       C  0.82502634  0.35880297  0.15010953    -0.06520
C1286       C  0.84287155  0.34192134  0.12724996    -0.17650
C1287       C  0.82137500  0.30976593  0.09951953     0.10680
C1288       C  0.78265423  0.29773234  0.08985744    -0.06450
C1289       C  0.76454622  0.31248448  0.11665146    -0.17680
C1290       C  0.78469254  0.33998344  0.14941011     0.10710
S1291       S  0.84351045  0.28437471  0.07672740    -0.32650
S1292       S  0.75781819  0.35196219  0.18762659    -0.32650
H1293       H  0.78727663  0.37055636  0.21918113     0.28720
H1294       H  0.87720356  0.30349469  0.10215184     0.28710
H1295       H  0.87358109  0.35494095  0.12923675     0.19310
H1296       H  0.73518962  0.30445327  0.11113263     0.19310
C1297       C  0.76674951  0.49047061  0.10053093    -0.06520
C1298       C  0.79364989  0.01661922  0.13113391    -0.17650
C1299       C  0.81922019  0.00787535  0.15233431     0.10680
C1300       C  0.81237413  0.46959327  0.15021155    -0.06450
C1301       C  0.77764828  0.44154710  0.13059203    -0.17680
C1302       C  0.75719857  0.45177491  0.10252497     0.10710
S1303       S  0.86179779  0.04815887  0.17453986    -0.32650
S1304       S  0.72036851  0.41405672  0.06891480    -0.32650
H1305       H  0.69704755  0.43031455  0.06527276     0.28720
H1306       H  0.88628084  0.03851661  0.15205978     0.28710
H1307       H  0.79908308  0.04588867  0.13225469     0.19310
H1308       H  0.76806934  0.41126303  0.13269868     0.19310
C1309       C  0.83830358  0.31321279  0.93224966    -0.06520
C1310       C  0.83068345  0.33855846  0.95614755    -0.17650
C1311       C  0.80428814  0.32570292  0.99142211     0.10680
C1312       C  0.78644330  0.28671015  0.00608045    -0.06450
C1313       C  0.79218933  0.26078502  0.98048893    -0.17680
C1314       C  0.81583361  0.27318414  0.94217174     0.10710
S1315       S  0.79550294  0.36124965  0.01648784    -0.32650
S1316       S  0.81656089  0.23762897  0.90588118    -0.32650
H1317       H  0.79043473  0.20483726  0.93066937     0.28720
H1318       H  0.75728370  0.33537367  0.02815189     0.28710
H1319       H  0.84675869  0.36919702  0.94907137     0.19310
H1320       H  0.77852106  0.23087682  0.99073263     0.19310
C1321       C  0.95937509  0.32668289  0.94435434    -0.06520
C1322       C  0.98359522  0.31373944  0.92911174    -0.17650
C1323       C  0.99853742  0.29787572  0.95954934     0.10680
C1324       C  0.98574008  0.29181963  0.00492444    -0.06450
C1325       C  0.95899714  0.30217683  0.01806245    -0.17680
C1326       C  0.94934088  0.32306805  0.99002993     0.10710
S1327       S  0.03441276  0.28728616  0.94036573    -0.32650
S1328       S  0.92464887  0.34525244  0.01489519    -0.32650
H1329       H  0.93956028  0.37698584  0.98536641     0.28720
H1330       H  0.03623450  0.29956743  0.89570813     0.28710
H1331       H  0.99093482  0.31646055  0.89380629     0.19310
H1332       H  0.94866406  0.29768348  0.05239621     0.19310
C1333       C  0.96042123  0.15909523  0.94434218    -0.06520
C1334       C  0.99442669  0.16981333  0.96740869    -0.17650
C1335       C  0.00940684  0.20003951  0.99846053     0.10680
C1336       C  0.98898998  0.21884619  0.00988112    -0.06450
C1337       C  0.95523651  0.20834735  0.98600112    -0.17680
C1338       C  0.94290963  0.18149729  0.95110825     0.10710
S1339       S  0.55450337  0.21277755  0.02314235    -0.32650
S1340       S  0.90450700  0.17707218  0.91642676    -0.32650
H1341       H  0.91220667  0.15979091  0.88010272     0.28720
H1342       H  0.57090165  0.25154011  0.00985360     0.28710
H1343       H  0.50869847  0.15350329  0.96284866     0.19310
H1344       H  0.93801600  0.22093415  0.99424376     0.19310
C1345       C  0.78562252  0.01621064  0.02331218    -0.06520
C1346       C  0.82312712  0.04309625  0.03632839    -0.17650
C1347       C  0.85462364  0.04904608  0.01222946     0.10680
C1348       C  0.84997520  0.03537243  0.96798917    -0.06450
C1349       C  0.81282173  0.00999796  0.95247756    -0.17680
C1350       C  0.78056167  0.99857704  0.98047355     0.10710
S1351       S  0.90055977  0.07669974  0.03928296    -0.32650
S1352       S  0.73507573  0.46303555  0.95774161    -0.32650
H1353       H  0.71308109  0.45631202  0.99619437     0.28720
H1354       H  0.91901043  0.06171926  0.01345957     0.28710
H1355       H  0.82867117  0.05943588  0.06668598     0.19310
H1356       H  0.80890682  0.99953562  0.91834279     0.19310
C1357       C  0.93699836  0.56149977  0.89494168     0.02730
C1358       C  0.90024806  0.53843276  0.91416755    -0.13420
C1359       C  0.88273360  0.55604287  0.93671438     0.00230
C1360       C  0.90085400  0.59620863  0.93765063    -0.11940
C1361       C  0.93885236  0.61947167  0.92455692     0.02730
C1362       C  0.95667096  0.60198402  0.90205153    -0.11360
H1363       H  0.88583134  0.50728208  0.91252170     0.08320
H1364       H  0.88701644  0.60885342  0.95619320     0.05850
H1365       H  0.98591993  0.61982556  0.89065832     0.05700
C1366       C  0.93253300  0.88911591  0.87976818     0.02730
C1367       C  0.95536890  0.87410717  0.89408917    -0.13420
C1368       C  0.93829957  0.83722979  0.91310176     0.00230
C1369       C  0.89859867  0.81452469  0.91573539    -0.11940
C1370       C  0.87540369  0.83008824  0.90695220     0.02730
C1371       C  0.89246626  0.86694081  0.88647169    -0.11360
H1372       H  0.98624556  0.89168884  0.89291056     0.08320
H1373       H  0.88704081  0.78765546  0.93420259     0.05850
H1374       H  0.87491613  0.87923795  0.87821910     0.05700
C1375       C  0.88593691  0.95295461  0.21307810     0.02730
C1376       C  0.86592043  0.97147144  0.19947701    -0.13420
C1377       C  0.83972578  0.95646083  0.16371409     0.00230
C1378       C  0.83622292  0.92409241  0.14163362    -0.11940
C1379       C  0.84695178  0.90016952  0.16259941     0.02730
C1380       C  0.87375625  0.91534831  0.19719758    -0.11360
H1381       H  0.87008236  0.49615913  0.21814699     0.08320
H1382       H  0.81996862  0.91382996  0.11091033     0.05850
H1383       H  0.88464241  0.89811819  0.21167265     0.05700
C1384       C  0.59928610  0.55679834  0.89444859     0.02730
C1385       C  0.61788807  0.53554543  0.90336841    -0.13420
C1386       C  0.65129610  0.55163415  0.92973223     0.00230
C1387       C  0.66656905  0.58941100  0.94450598    -0.11940
C1388       C  0.64773909  0.60982818  0.93836699     0.02730
C1389       C  0.61425486  0.59387917  0.91303308    -0.11360
H1390       H  0.60644181  0.50686993  0.88994948     0.08320
H1391       H  0.69197405  0.60222428  0.96523350     0.05850
H1392       H  0.59988015  0.61008776  0.90831750     0.05700
C1393       C  0.54670343  0.96013003  0.21059771     0.02730
C1394       C  0.52577411  0.92351327  0.18972826    -0.13420
C1395       C  0.54551210  0.90897855  0.16528256     0.00230
C1396       C  0.58529550  0.93057180  0.16336430    -0.11940
C1397       C  0.60595919  0.96765956  0.18051283     0.02730
C1398       C  0.58667948  0.98260964  0.20375754    -0.11360
H1399       H  0.99493667  0.90676487  0.19241957     0.08320
H1400       H  0.60036025  0.91930678  0.14455229     0.05850
H1401       H  0.60311791  0.51141634  0.21734931     0.05700
C1402       C  0.72711412  0.51297146  0.06096367     0.00170
C1403       C  0.75626856  0.50493800  0.06015596     0.00170
C1404       C  0.54628138  0.62413812  0.21541778     0.02730
C1405       C  0.52565822  0.64369499  0.20982353    -0.13420
C1406       C  0.54191121  0.67923544  0.18691791     0.00230
C1407       C  0.58032089  0.69663827  0.17452277    -0.11940
C1408       C  0.60001901  0.67663130  0.17449698     0.02730
C1409       C  0.58303671  0.64006560  0.19545855    -0.11360
H1410       H  0.99712794  0.63130043  0.22343712     0.08320
H1411       H  0.59421942  0.72483059  0.15873638     0.05850
H1412       H  0.59814339  0.62435248  0.19626355     0.05700
C1413       C  0.00169799  0.74755243  0.04817394     0.00170
C1414       C  0.00361854  0.78261165  0.04320996     0.00170
C1415       C  0.72579088  0.74424885  0.04903527     0.00170
C1416       C  0.76326085  0.77383600  0.04879757     0.00170
O1417       O  0.55810480  0.51278105  0.83978821    -0.85750
O1418       O  0.98622747  0.94911378  0.85646242    -0.82790
C1419       C  0.95037238  0.92739076  0.85734750     0.97720
O1420       O  0.92942723  0.93661796  0.83598232    -0.82820
O1421       O  0.93874945  0.50813170  0.86144348    -0.85470
C1422       C  0.95437292  0.54428793  0.86586221     1.02240
O1423       O  0.98363872  0.56666989  0.84281581    -0.78230
O1424       O  0.54615448  0.55771626  0.86098957    -0.78420
C1425       C  0.56562785  0.54129663  0.86418382     1.02190
O1426       O  0.54350817  0.50334262  0.74658524    -0.85740
O1427       O  0.97388768  0.93730861  0.76299240    -0.82810
C1428       C  0.94626385  0.93427438  0.74037436     0.97740
O1429       O  0.93476311  0.95792132  0.74532827    -0.82830
O1430       O  0.93797734  0.52620746  0.76946485    -0.85440
C1431       C  0.96182640  0.55466696  0.74617489     1.02210
O1432       O  0.99721163  0.56684864  0.74938687    -0.78260
O1433       O  0.56273620  0.56259961  0.76767395    -0.78410
C1434       C  0.56721835  0.53901654  0.74426207     1.02170
Cr1435     Cr  0.51328547  0.97839114  0.80162337     1.93740
Cr1436     Cr  0.94010225  0.98450357  0.80324092     1.93210
Cr1437     Cr  0.51986312  0.55869162  0.80499996     1.39100
O1438       O  0.99114173  0.50722946  0.80295210    -1.23490
C1439       C  0.94651812  0.57353660  0.71666846     0.02730
C1440       C  0.90941063  0.55037562  0.69903086    -0.13420
C1441       C  0.89187922  0.56727610  0.67569991     0.00230
C1442       C  0.91051869  0.60715628  0.67164673    -0.11940
C1443       C  0.94853037  0.63110716  0.68463065     0.02730
C1444       C  0.96647890  0.61399842  0.70843445    -0.11360
H1445       H  0.89466369  0.51925833  0.70239455     0.08320
H1446       H  0.89606534  0.61900245  0.65269338     0.05850
H1447       H  0.99493715  0.63168998  0.72157327     0.05700
C1448       C  0.88510540  0.94803930  0.39716417     0.02730
C1449       C  0.87045626  0.97030261  0.41550745    -0.13420
C1450       C  0.83569133  0.95220059  0.43876116     0.00230
C1451       C  0.81486123  0.91224365  0.44154753    -0.11940
C1452       C  0.83017100  0.88958343  0.42845525     0.02730
C1453       C  0.86536049  0.90762234  0.40493130    -0.11360
H1454       H  0.88641833  0.50146795  0.41264496     0.08320
H1455       H  0.78817272  0.89925885  0.46019209     0.05850
H1456       H  0.87677997  0.89052691  0.39179086     0.05700
C1457       C  0.60235346  0.55416146  0.71660586     0.02730
C1458       C  0.61883697  0.59174141  0.69874924    -0.13420
C1459       C  0.65461497  0.60876038  0.67790886     0.00230
C1460       C  0.67526909  0.58991159  0.67873282    -0.11940
C1461       C  0.65822432  0.55105353  0.69077103     0.02730
C1462       C  0.62128442  0.53299866  0.71035930    -0.11360
H1463       H  0.60335265  0.60710302  0.69978211     0.08320
H1464       H  0.70304017  0.60432257  0.66265642     0.05850
H1465       H  0.60778197  0.50319671  0.72122905     0.05700
C1466       C  0.55733234  0.96535995  0.39220524     0.02730
C1467       C  0.53446649  0.92752953  0.40915522    -0.13420
C1468       C  0.55091473  0.90996092  0.43327617     0.00230
C1469       C  0.59018289  0.92918020  0.43901693    -0.11940
C1470       C  0.61381535  0.96772622  0.42624729     0.02730
C1471       C  0.59719545  0.98582614  0.40157521    -0.11360
H1472       H  0.00375030  0.91216390  0.40479168     0.08320
H1473       H  0.60162455  0.91468607  0.45874829     0.05850
H1474       H  0.61482880  0.51488792  0.38898125     0.05700
C1475       C  0.97800696  0.74114158  0.54793808     0.00170
C1476       C  0.97587675  0.77422009  0.54519806     0.00170
C1477       C  0.76199227  0.50489131  0.55917883     0.00170
C1478       C  0.72651174  0.50167646  0.56021184     0.00170
C1479       C  0.53923667  0.62198536  0.39264570     0.02730
C1480       C  0.51881151  0.64149038  0.39943586    -0.13420
C1481       C  0.53629257  0.67740922  0.42158609     0.00230
C1482       C  0.57396500  0.69304868  0.43587172    -0.11940
C1483       C  0.59254348  0.67206373  0.43444736     0.02730
C1484       C  0.57595801  0.63718019  0.41134447    -0.11360
H1485       H  0.98984661  0.62907203  0.38727269     0.08320
H1486       H  0.58726660  0.71940810  0.45515218     0.05850
H1487       H  0.59079116  0.62119373  0.40955074     0.05700
C1488       C  0.92566711  0.90012782  0.71142948     0.02730
C1489       C  0.88543604  0.88110193  0.70742252    -0.13420
C1490       C  0.86540286  0.84463386  0.68702125     0.00230
C1491       C  0.88612998  0.82820883  0.67081604    -0.11940
C1492       C  0.92579975  0.84785689  0.67077926     0.02730
C1493       C  0.94581437  0.88367508  0.69190258    -0.11360
H1494       H  0.86983322  0.89404909  0.72097026     0.08320
H1495       H  0.87153339  0.80116033  0.65289042     0.05850
H1496       H  0.97675167  0.89891244  0.69249471     0.05700
C1497       C  0.74870805  0.77571827  0.56092045     0.00170
C1498       C  0.71643070  0.73990280  0.55953761     0.00170
O1499       O  0.92241962  0.49457635  0.34262719    -0.85750
O1500       O  0.98854768  0.56444629  0.36013252    -0.82790
C1501       C  0.52407826  0.58749404  0.36378965     0.97720
O1502       O  0.54774828  0.58296705  0.34094600    -0.82820
O1503       O  0.55123391  0.51676230  0.35891065    -0.85470
C1504       C  0.53868566  0.98101767  0.36279325     1.02240
O1505       O  0.00994748  0.95714228  0.34053806    -0.78230
O1506       O  0.94203687  0.95505781  0.36325908    -0.78420
C1507       C  0.91880135  0.96707214  0.36688941     1.02190
O1508       O  0.93729764  0.50761254  0.24905227    -0.85740
O1509       O  0.00038526  0.58007107  0.26733593    -0.82810
C1510       C  0.52964205  0.58859074  0.24401185     0.97740
O1511       O  0.54546536  0.56859070  0.24728404    -0.82830
O1512       O  0.55100022  0.50398422  0.26545153    -0.85440
C1513       C  0.52893969  0.97488423  0.24225755     1.02210
O1514       O  0.99323048  0.95790361  0.24808048    -0.78260
O1515       O  0.92357114  0.94992610  0.27117734    -0.78410
C1516       C  0.91726714  0.97129966  0.24603544     1.02170
Cr1517     Cr  0.96471040  0.53444171  0.30474640     1.93740
Cr1518     Cr  0.54396055  0.54034839  0.30335398     1.93210
Cr1519     Cr  0.96952878  0.96001076  0.30583665     1.39100
O1520       O  0.99281901  0.51169214  0.30496901    -1.23490
C1521       C  0.77077796  0.79152296  0.60385138    -0.06520
C1522       C  0.78077614  0.76926789  0.63084375    -0.17650
C1523       C  0.80354858  0.78493992  0.66864028     0.10680
C1524       C  0.82449034  0.82545596  0.67363511    -0.06450
C1525       C  0.81192498  0.84722671  0.65020123    -0.17680
C1526       C  0.78364579  0.82999621  0.61708699     0.10710
S1527       S  0.80923400  0.75275913  0.70599860    -0.32650
S1528       S  0.76491526  0.85758245  0.59141060    -0.32650
H1529       H  0.78170013  0.88875151  0.62137327     0.28720
H1530       H  0.82704520  0.78007409  0.74027586     0.28710
H1531       H  0.77201676  0.73989258  0.62236162     0.19310
H1532       H  0.82628694  0.87811101  0.65494582     0.19310
C1533       C  0.62462007  0.68413930  0.46580145    -0.06520
C1534       C  0.66156846  0.69529640  0.45053940    -0.17650
C1535       C  0.69312907  0.71399678  0.47965646     0.10680
C1536       C  0.68765867  0.72513192  0.52285222    -0.06450
C1537       C  0.65044831  0.71354041  0.53717870    -0.17680
C1538       C  0.61917836  0.69081706  0.51083705     0.10710
S1539       S  0.73896550  0.72138275  0.46233467    -0.32650
S1540       S  0.57268710  0.67098994  0.53688812    -0.32650
H1541       H  0.55447197  0.63815159  0.50952980     0.28720
H1542       H  0.72755565  0.70460123  0.41969971     0.28710
H1543       H  0.66552945  0.68936519  0.41617743     0.19310
H1544       H  0.64534219  0.71991481  0.57087791     0.19310
C1545       C  0.96008127  0.78798847  0.58130662    -0.06520
C1546       C  0.97701773  0.79786897  0.62421139    -0.17650
C1547       C  0.96756539  0.81834736  0.65477329     0.10680
C1548       C  0.94365683  0.83235571  0.64059693    -0.06450
C1549       C  0.92948765  0.82496789  0.59674956    -0.17680
C1550       C  0.93502664  0.80105047  0.56864982     0.10710
S1551       S  0.98676690  0.82555846  0.71065191    -0.32650
S1552       S  0.90893862  0.78846711  0.51674706    -0.32650
H1553       H  0.89747024  0.74933072  0.52003789     0.28720
H1554       H  0.95609868  0.82565031  0.73239865     0.28710
H1555       H  0.99783049  0.78995192  0.63375794     0.19310
H1556       H  0.91100863  0.83547351  0.58547633     0.19310
C1557       C  0.48893908  0.72632388  0.50755461    -0.06520
C1558       C  0.52285049  0.75010772  0.48358501    -0.17650
C1559       C  0.53368812  0.73594245  0.44718420     0.10680
C1560       C  0.51486171  0.69561631  0.43968343    -0.06450
C1561       C  0.97996623  0.67211343  0.46180205    -0.17680
C1562       C  0.96611123  0.68747976  0.49377795     0.10710
S1563       S  0.57263025  0.77054536  0.41236114    -0.32650
S1564       S  0.91927412  0.65602370  0.51643909    -0.32650
H1565       H  0.90496926  0.67954524  0.50244866     0.28720
H1566       H  0.56453958  0.74538856  0.37601046     0.28710
H1567       H  0.54122630  0.77990545  0.49289418     0.19310
H1568       H  0.96424172  0.64132119  0.45599642     0.19310
C1569       C  0.49685129  0.80553614  0.51071719    -0.06520
C1570       C  0.52319768  0.84138200  0.52933427    -0.17650
C1571       C  0.53533394  0.87545219  0.50620589     0.10680
C1572       C  0.52824646  0.87449256  0.45994506    -0.06450
C1573       C  0.00485075  0.83890400  0.43920333    -0.17680
C1574       C  0.98753896  0.80440026  0.46436685     0.10710
S1575       S  0.55823569  0.91945978  0.53833958    -0.32650
S1576       S  0.95430382  0.76144664  0.43456616    -0.32650
H1577       H  0.93528467  0.73948224  0.47230422     0.28720
H1578       H  0.54699581  0.94013365  0.51035535     0.28710
H1579       H  0.53127824  0.84331487  0.56426412     0.19310
H1580       H  0.99968917  0.83809461  0.40344903     0.19310
C1581       C  0.70368139  0.99629373  0.51791849    -0.06520
C1582       C  0.69167440  0.52317689  0.50999889    -0.17650
C1583       C  0.66626512  0.51841889  0.47535032     0.10680
C1584       C  0.65349199  0.98709065  0.44567227    -0.06450
C1585       C  0.67120423  0.96468877  0.44857733    -0.17680
C1586       C  0.69244129  0.96606067  0.48636497     0.10710
S1587       S  0.64850301  0.55113809  0.47326544    -0.32650
S1588       S  0.69740100  0.92429660  0.49455790    -0.32650
H1589       H  0.70489911  0.92880719  0.54062462     0.28720
H1590       H  0.66300824  0.56393167  0.42973080     0.28710
H1591       H  0.70061371  0.54720356  0.53265243     0.19310
H1592       H  0.66235187  0.94086910  0.42555509     0.19310
C1593       C  0.67681529  0.52986186  0.67266331    -0.06520
C1594       C  0.65466212  0.49625817  0.64774750    -0.17650
C1595       C  0.67144337  0.48461120  0.61487223     0.10680
C1596       C  0.71038406  0.50897623  0.60253063    -0.06450
C1597       C  0.73275313  0.54111828  0.62982089    -0.17680
C1598       C  0.71706919  0.54893786  0.66731652     0.10710
S1599       S  0.64189872  0.93817075  0.59003188    -0.32650
S1600       S  0.74964048  0.58500898  0.70604424    -0.32650
H1601       H  0.72261001  0.57467643  0.74082542     0.28720
H1602       H  0.66829400  0.92637543  0.59949453     0.28710
H1603       H  0.62395644  0.97991420  0.65220596     0.19310
H1604       H  0.76250283  0.56076917  0.62218274     0.19310
C1605       C  0.66918372  0.64311125  0.64869482    -0.06520
C1606       C  0.67305364  0.67762062  0.66482609    -0.17650
C1607       C  0.68944866  0.71098568  0.63784652     0.10680
C1608       C  0.70509059  0.71027863  0.59542662    -0.06450
C1609       C  0.70262758  0.67613336  0.58089326    -0.17680
C1610       C  0.68246531  0.64230887  0.60505104     0.10710
S1611       S  0.68828716  0.75223257  0.65932186    -0.32650
S1612       S  0.67242572  0.59870048  0.57640333    -0.32650
H1613       H  0.63656581  0.57521571  0.59683629     0.28720
H1614       H  0.69231554  0.77100815  0.61821682     0.28710
H1615       H  0.66262804  0.67834549  0.69809646     0.19310
H1616       H  0.71338165  0.67492699  0.54797820     0.19310
C1617       C  0.76739533  0.79894097  0.51904251    -0.06520
C1618       C  0.80653689  0.81183407  0.51293458    -0.17650
C1619       C  0.82810635  0.83766947  0.47851855     0.10680
C1620       C  0.81001426  0.84926027  0.44690413    -0.06450
C1621       C  0.76972774  0.83014673  0.44796084    -0.17680
C1622       C  0.74910410  0.80940390  0.48604996     0.10710
S1623       S  0.87904307  0.85834772  0.48028821    -0.32650
S1624       S  0.70274247  0.80470067  0.49315288    -0.32650
H1625       H  0.70062212  0.80009534  0.53993888     0.28720
H1626       H  0.88053799  0.84588162  0.43672861     0.28710
H1627       H  0.82115674  0.80366583  0.53703680     0.19310
H1628       H  0.75533020  0.83848914  0.42371234     0.19310
C1629       C  0.77636487  0.99011440  0.52242447    -0.06520
C1630       C  0.78884186  0.96528049  0.53772067    -0.17650
C1631       C  0.81522797  0.96050500  0.51372812     0.10680
C1632       C  0.82270347  0.97252993  0.46858703    -0.06450
C1633       C  0.80939089  0.99612937  0.45152738    -0.17680
C1634       C  0.78853500  0.00739472  0.47931011     0.10710
S1635       S  0.83902066  0.93902060  0.54256074    -0.32650
S1636       S  0.78041377  0.04534496  0.46079090    -0.32650
H1637       H  0.79938337  0.05228954  0.41925598     0.28720
H1638       H  0.87149611  0.95525973  0.51457843     0.28710
H1639       H  0.78156562  0.45321549  0.57133800     0.19310
H1640       H  0.81567876  0.00590688  0.41700189     0.19310
C1641       C  0.96755217  0.67178387  0.66635155    -0.06520
C1642       C  0.94441153  0.68852243  0.66301298    -0.17650
C1643       C  0.94404073  0.70768539  0.62374117     0.10680
C1644       C  0.97419838  0.71992932  0.59181829    -0.06450
C1645       C  0.00266030  0.71053093  0.60111897    -0.17680
C1646       C  0.99917299  0.68605295  0.63694098     0.10710
S1647       S  0.90029181  0.70786125  0.61428485    -0.32650
S1648       S  0.53458527  0.67215177  0.64168607    -0.32650
H1649       H  0.54321663  0.68495694  0.68626576     0.28720
H1650       H  0.90279855  0.70830598  0.56759144     0.28710
H1651       H  0.92072825  0.67908423  0.68633274     0.19310
H1652       H  0.52693516  0.72052255  0.57866481     0.19310
C1653       C  0.85772875  0.54539680  0.64733380    -0.06520
C1654       C  0.82150040  0.51992085  0.66553202    -0.17650
C1655       C  0.78852149  0.50583335  0.63854776     0.10680
C1656       C  0.79164973  0.52244328  0.59534926    -0.06450
C1657       C  0.82820790  0.54967502  0.57932910    -0.17680
C1658       C  0.86059971  0.55648837  0.60209090     0.10710
S1659       S  0.74417193  0.46517204  0.65802979    -0.32650
S1660       S  0.90504779  0.57764249  0.57119089    -0.32650
H1661       H  0.92245987  0.56256854  0.59877127     0.28720
H1662       H  0.75805142  0.46010571  0.69913727     0.28710
H1663       H  0.81927995  0.51054253  0.70007496     0.19310
H1664       H  0.83174446  0.56128294  0.54562443     0.19310
C1665       C  0.63476858  0.69346898  0.14514926    -0.06520
C1666       C  0.63104819  0.70697234  0.10293853    -0.17650
C1667       C  0.66246035  0.73065948  0.07654396     0.10680
C1668       C  0.69842933  0.73582630  0.08720177    -0.06450
C1669       C  0.70278741  0.72157310  0.12882535    -0.17680
C1670       C  0.67160107  0.70196339  0.15878238     0.10710
S1671       S  0.65490793  0.75347242  0.02889853    -0.32650
S1672       S  0.68058884  0.68861998  0.21313346    -0.32650
H1673       H  0.65285028  0.69309660  0.23612420     0.28720
H1674       H  0.68896780  0.78861361  0.03595686     0.28710
H1675       H  0.60330874  0.70110316  0.09152181     0.19310
H1676       H  0.73013218  0.72475231  0.13733776     0.19310
C1677       C  0.52000430  0.69705325  0.16806531    -0.06520
C1678       C  0.54021765  0.73749886  0.16306621    -0.17650
C1679       C  0.53822199  0.75469152  0.12298841     0.10680
C1680       C  0.50746783  0.73325531  0.09294726    -0.06450
C1681       C  0.48112947  0.69457063  0.10461304    -0.17680
C1682       C  0.48797550  0.67590900  0.14006023     0.10710
S1683       S  0.58034279  0.80028319  0.10972045    -0.32650
S1684       S  0.45739563  0.62452823  0.14389433    -0.32650
H1685       H  0.44496840  0.62646338  0.18738619     0.28720
H1686       H  0.57794249  0.79435359  0.06342199     0.28710
H1687       H  0.56384604  0.75459694  0.18543894     0.19310
H1688       H  0.45656447  0.67755888  0.08347897     0.19310
C1689       C  0.64698990  0.99051812  0.16863586    -0.06520
C1690       C  0.66003496  0.52368205  0.14195341    -0.17650
C1691       C  0.69056142  0.53476808  0.11181097     0.10680
C1692       C  0.70520934  0.00985281  0.10401113    -0.06450
C1693       C  0.69428993  0.97930708  0.13504630    -0.17680
C1694       C  0.66858960  0.97223217  0.16966642     0.10710
S1695       S  0.70908583  0.58038436  0.08359962    -0.32650
S1696       S  0.65932227  0.93450648  0.20963695    -0.32650
H1697       H  0.64008978  0.94488761  0.24083195     0.28720
H1698       H  0.74717629  0.59046168  0.09089381     0.28710
H1699       H  0.64501007  0.53949769  0.14235639     0.19310
H1700       H  0.70282194  0.95844937  0.13205871     0.19310
C1701       C  0.52771402  0.87465990  0.13548324    -0.06520
C1702       C  0.54230510  0.88157932  0.09157045    -0.17650
C1703       C  0.54025225  0.85233933  0.06528603     0.10680
C1704       C  0.51669791  0.81332062  0.07864325    -0.06450
C1705       C  0.49839969  0.80570467  0.12098537    -0.17680
C1706       C  0.50545802  0.83598579  0.15048463     0.10710
S1707       S  0.56930107  0.86751656  0.01508693    -0.32650
S1708       S  0.48552069  0.82343363  0.20622460    -0.32650
H1709       H  0.51581899  0.85522196  0.22770204     0.28720
H1710       H  0.57497379  0.83598976  0.01414059     0.28710
H1711       H  0.55951474  0.91102512  0.07944054     0.19310
H1712       H  0.97872367  0.77622566  0.13116339     0.19310
C1713       C  0.66183315  0.64512585  0.96502820    -0.06520
C1714       C  0.67895973  0.68143134  0.94414996    -0.17650
C1715       C  0.70057421  0.71537995  0.96906215     0.10680
C1716       C  0.70877783  0.71237206  0.01502386    -0.06450
C1717       C  0.69292519  0.67525968  0.03403284    -0.17680
C1718       C  0.66663489  0.64274952  0.01132945     0.10710
S1719       S  0.71557190  0.75992938  0.93913265    -0.32650
S1720       S  0.63990397  0.59861313  0.04333970    -0.32650
H1721       H  0.60869947  0.58111507  0.01388507     0.28720
H1722       H  0.72291604  0.78328188  0.97657316     0.28710
H1723       H  0.67540895  0.68328695  0.90836181     0.19310
H1724       H  0.69841562  0.67159975  0.06869957     0.19310
C1725       C  0.66973541  0.53036879  0.94821724    -0.06520
C1726       C  0.71002902  0.55065069  0.94905117    -0.17650
C1727       C  0.73014450  0.54742789  0.98542121     0.10680
C1728       C  0.71018997  0.51820821  0.01830226    -0.06450
C1729       C  0.67051473  0.49339085  0.01258808    -0.17680
C1730       C  0.65013448  0.49972231  0.97908660     0.10710
S1731       S  0.77905905  0.58613947  0.99047216    -0.32650
S1732       S  0.59887764  0.97122137  0.98155833    -0.32650
H1733       H  0.59613851  0.45725064  0.93775749     0.28720
H1734       H  0.78226700  0.58305157  0.03685877     0.28710
H1735       H  0.72549168  0.57430323  0.92554751     0.19310
H1736       H  0.65466287  0.97030593  0.03663264     0.19310
C1737       C  0.82502727  0.85879985  0.15011228    -0.06520
C1738       C  0.84287067  0.84191752  0.12725047    -0.17650
C1739       C  0.82137285  0.80976417  0.09951770     0.10680
C1740       C  0.78265270  0.79773363  0.08985570    -0.06450
C1741       C  0.76454643  0.81248668  0.11665131    -0.17680
C1742       C  0.78469365  0.83998300  0.14941220     0.10710
S1743       S  0.84350619  0.78437176  0.07672298    -0.32650
S1744       S  0.75782103  0.85196276  0.18763019    -0.32650
H1745       H  0.78727975  0.87055459  0.21918488     0.28720
H1746       H  0.87720019  0.80349022  0.10214608     0.28710
H1747       H  0.87357999  0.85493530  0.12923731     0.19310
H1748       H  0.73519050  0.80445799  0.11113246     0.19310
C1749       C  0.76676187  0.99047514  0.10053099    -0.06520
C1750       C  0.79363388  0.51661395  0.13113736    -0.17650
C1751       C  0.81920550  0.50787176  0.15233796     0.10680
C1752       C  0.81238484  0.96959545  0.15021119    -0.06450
C1753       C  0.77765718  0.94155007  0.13059458    -0.17680
C1754       C  0.75720784  0.95177854  0.10252778     0.10710
S1755       S  0.86178071  0.54815651  0.17454606    -0.32650
S1756       S  0.72037303  0.91405905  0.06892339    -0.32650
H1757       H  0.69705785  0.93032280  0.06527265     0.28720
H1758       H  0.88626636  0.53851895  0.15206378     0.28710
H1759       H  0.79906659  0.54588338  0.13225622     0.19310
H1760       H  0.76807619  0.91126562  0.13270360     0.19310
C1761       C  0.83830130  0.81320956  0.93224722    -0.06520
C1762       C  0.83068212  0.83855667  0.95614369    -0.17650
C1763       C  0.80428712  0.82570321  0.99141860     0.10680
C1764       C  0.78644073  0.78671086  0.00607846    -0.06450
C1765       C  0.79218572  0.76078412  0.98048890    -0.17680
C1766       C  0.81583074  0.77318116  0.94217216     0.10710
S1767       S  0.79550412  0.86125201  0.01648279    -0.32650
S1768       S  0.81655607  0.73762307  0.90588477    -0.32650
H1769       H  0.79044852  0.70483403  0.93069028     0.28720
H1770       H  0.75728544  0.83537778  0.02815097     0.28710
H1771       H  0.84675781  0.86919495  0.94906615     0.19310
H1772       H  0.77851554  0.73087608  0.99073380     0.19310
C1773       C  0.95936908  0.82667369  0.94434593    -0.06520
C1774       C  0.98358668  0.81372675  0.92910453    -0.17650
C1775       C  0.99852730  0.79786253  0.95954352     0.10680
C1776       C  0.98573120  0.79181029  0.00491896    -0.06450
C1777       C  0.95898996  0.80216999  0.01805570    -0.17680
C1778       C  0.94933508  0.82306116  0.99002150     0.10710
S1779       S  0.03439930  0.78726766  0.94036122    -0.32650
S1780       S  0.92464437  0.84524777  0.01488461    -0.32650
H1781       H  0.93955868  0.87698146  0.98535610     0.28720
H1782       H  0.03621958  0.79954475  0.89570197     0.28710
H1783       H  0.99092561  0.81644564  0.89379900     0.19310
H1784       H  0.94865749  0.79767883  0.05238963     0.19310
C1785       C  0.96039744  0.65908015  0.94434745    -0.06520
C1786       C  0.99440426  0.66979799  0.96741089    -0.17650
C1787       C  0.00938764  0.70002533  0.99846123     0.10680
C1788       C  0.98897316  0.71883417  0.00988308    -0.06450
C1789       C  0.95521743  0.70833463  0.98600772    -0.17680
C1790       C  0.94288618  0.68148221  0.95111704     0.10710
S1791       S  0.55448563  0.71276262  0.02313877    -0.32650
S1792       S  0.90448007  0.67705619  0.91644152    -0.32650
H1793       H  0.91217858  0.65977767  0.88011359     0.28720
H1794       H  0.57088421  0.75152506  0.00984944     0.28710
H1795       H  0.50867536  0.65348752  0.96284881     0.19310
H1796       H  0.93799889  0.72092331  0.99425217     0.19310
C1797       C  0.78560895  0.51620006  0.02330845    -0.06520
C1798       C  0.82311909  0.54306802  0.03632625    -0.17650
C1799       C  0.85460865  0.54900952  0.01221869     0.10680
C1800       C  0.84995158  0.53535155  0.96797090    -0.06450
C1801       C  0.81279372  0.50999691  0.95245698    -0.17680
C1802       C  0.78053785  0.49857924  0.98045958     0.10710
S1803       S  0.90054951  0.57663982  0.03926845    -0.32650
S1804       S  0.73510694  0.96301136  0.95776048    -0.32650
H1805       H  0.71309854  0.95632036  0.99619332     0.28720
H1806       H  0.91898686  0.56165649  0.01342523     0.28710
H1807       H  0.82867366  0.55940179  0.06668999     0.19310
H1808       H  0.80887244  0.49954762  0.91831579     0.19310
loop_ 
_geom_bond_atom_site_label_1 
_geom_bond_atom_site_label_2 
_geom_bond_distance 
_geom_bond_site_symmetry_2 
_ccdc_geom_bond_type 
C1            C2   1.415       .  A
C1            C6   1.421       .  A
C1           C66   1.493       .  S
C2            C3   1.405       .  A
C2            H7   1.083       .  S
C3            C4   1.396       .  A
C3          C444   1.482       .  S
C4            C5   1.392       .  A
C4            H8   1.083       .  S
C5            C6   1.410       .  A
C5          C429   1.500       .  S
C6            H9   1.083       .  S
C10          C11   1.406       .  A
C10          C15   1.417       .  A
C10          C63   1.483       .  S
C11          C12   1.397       .  A
C11          H16   1.083       .  S
C12          C13   1.395       .  A
C12         C417   1.466       .  S
C13          C14   1.396       .  A
C13          H17   1.082       .  S
C14          C15   1.414       .  A
C14         C405   1.501       .  S
C15          H18   1.083       .  S
C19          C20   1.413       .  A
C19          C24   1.417       .  A
C19         C160   1.479       .  S
C20          C21   1.411       .  A
C20         H477   1.077       .  S
C21          C22   1.404       .  A
C21         C396   1.507       .  S
C22          C23   1.389       .  A
C22          H26   1.084       .  S
C23          C24   1.399       .  A
C23         C381   1.485       .  S
C24          H27   1.083       .  S
H25         C472   1.077       .  S
C28          C29   1.425       .  A
C28          C33   1.411       .  A
C28          C69   1.489       .  S
C29          C30   1.413       .  A
C29          H34   1.081       .  S
C30          C31   1.393       .  A
C30         C369   1.499       .  S
C31          C32   1.390       .  A
C31          H35   1.085       .  S
C32          C33   1.398       .  A
C32         C357   1.471       .  S
C33          H36   1.083       .  S
C37          C38   1.421       .  A
C37          C42   1.415       .  A
C37         C157   1.484       .  S
C38          C39   1.412       .  A
C38         H947   1.083   1_455  S
C39          C40   1.394       .  A
C39         C345   1.490       .  S
C40          C41   1.389       .  A
C40          H44   1.085       .  S
C41          C42   1.391       .  A
C41         C333   1.479       .  S
C42         H497   1.083       .  S
H43         C942   1.083       .  S
H45         C494   1.083   1_545  S
C46          C47   1.377       .  D
C46         C372   1.511       .  S
C46         C788   1.528       .  S
C47         C441   1.508       .  S
C47         C845   1.489   1_545  S
C48          C49   1.421       .  A
C48          C53   1.420       .  A
C48         C154   1.495       .  S
C49          C50   1.407       .  A
C49         H958   1.080   1_455  S
C50          C51   1.396       .  A
C50         C321   1.506       .  S
C51          C52   1.394       .  A
C51          H55   1.082       .  S
C52          C53   1.411       .  A
C52         C309   1.495       .  S
C53          H56   1.082       .  S
H54         C953   1.080       .  S
C57          C58   1.380       .  D
C57         C432   1.521       .  S
C57        C1228   1.516       .  S
C58         C420   1.497       .  S
C58        C1252   1.508       .  S
C59          C60   1.376       .  D
C59         C312   1.501       .  S
C59         C360   1.505       .  S
C60         C384   1.513       .  S
C60         C408   1.507       .  S
O61          C69   1.262       .  A
O61        Cr531   1.998   1_545  S
O62          C63   1.262       .  A
O62        Cr983   1.982       .  S
C63          O64   1.261       .  A
O64         Cr80   1.997       .  S
O65          C66   1.266       .  A
O65        Cr532   1.996   1_545  S
C66          O67   1.265       .  A
O67        Cr985   2.004       .  S
O68          C69   1.266       .  A
O68         Cr81   1.995       .  S
O70          C78   1.260       .  A
O70        Cr531   1.983   1_545  S
O71          C72   1.263       .  A
O71        Cr983   1.990       .  S
C72         C132   1.476       .  S
C72          O73   1.264       .  A
O73         Cr80   1.989       .  S
O74          C75   1.263       .  A
O74        Cr532   1.993   1_545  S
C75          C83   1.488       .  S
C75          O76   1.266       .  A
O76        Cr985   2.003       .  S
O77          C78   1.266       .  A
O77         Cr81   2.002       .  S
C78         C101   1.482       .  S
Cr79        O513   1.998       .  S
Cr79        O966   1.982   1_455  S
Cr79        O522   1.983       .  S
Cr79        O975   1.990   1_455  S
Cr79       O1438   1.794   1_455  S
Cr80        O517   1.996       .  S
Cr80        O526   1.993       .  S
Cr80        O534   1.792       .  S
Cr81        O971   2.004   1_455  S
Cr81        O980   2.003   1_455  S
Cr81        O986   1.790   1_455  S
O82       Cr1435   1.794   1_545  S
O82        Cr532   1.792   1_545  S
O82        Cr985   1.790       .  S
C83          C84   1.414       .  A
C83          C88   1.423       .  A
C84          C85   1.394       .  A
C84          H89   1.084       .  S
C85          C86   1.389       .  A
C85         C297   1.479       .  S
C86          C87   1.399       .  A
C86          H90   1.084       .  S
C87          C88   1.420       .  A
C87         C285   1.510       .  S
C88          H91   1.080       .  S
C92          C93   1.415       .  A
C92          C97   1.419       .  A
C92         C151   1.483       .  S
C93          C94   1.397       .  A
C93         H550   1.083       .  S
C94          C95   1.388       .  A
C94         C276   1.477       .  S
C95          C96   1.396       .  A
C95          H99   1.085       .  S
C96          C97   1.414       .  A
C96         C264   1.499       .  S
C97         H100   1.081       .  S
H98         C545   1.083   1_545  S
C101        C102   1.408       .  A
C101        C106   1.421       .  A
C102        C103   1.396       .  A
C102        H107   1.084       .  S
C103        C104   1.388       .  A
C103        C249   1.475       .  S
C104        C105   1.396       .  A
C104        H108   1.082       .  S
C105        C106   1.416       .  A
C105        C237   1.499       .  S
C106        H109   1.083       .  S
C110        C111   1.411       .  A
C110        C115   1.424       .  A
C110        C148   1.491       .  S
C111        C112   1.393       .  A
C111       H1020   1.084       .  S
C112        C113   1.386       .  A
C112        C216   1.473       .  S
C113        C114   1.398       .  A
C113        H117   1.084       .  S
C114        C115   1.423       .  A
C114        C228   1.508       .  S
C115        H570   1.080       .  S
H116       C1015   1.084       .  S
H118        C567   1.080   1_545  S
C119        C120   1.379       .  D
C119        C288   1.523       .  S
C119       C1105   1.508       .  S
C120        C189   1.497       .  S
C120       C1117   1.505       .  S
C121        C122   1.381       .  D
C121        C300   1.504       .  S
C121        C725   1.500   1_545  S
C122        C240   1.517       .  S
C122        C677   1.517   1_545  S
C123        C124   1.417       .  A
C123        C128   1.411       .  A
C123        C145   1.480       .  S
C124        C125   1.414       .  A
C124       H1033   1.083   1_455  S
C125        C126   1.395       .  A
C125        C204   1.495       .  S
C126        C127   1.390       .  A
C126        H130   1.083       .  S
C127        C128   1.396       .  A
C127        C177   1.475       .  S
C128        H131   1.084       .  S
H129       C1028   1.083       .  S
C132        C133   1.415       .  A
C132        C137   1.414       .  A
C133        C134   1.408       .  A
C133        H138   1.083       .  S
C134        C135   1.395       .  A
C134        C168   1.490       .  S
C135        C136   1.389       .  A
C135        H139   1.083       .  S
C136        C137   1.399       .  A
C136        C192   1.479       .  S
C137        H140   1.083       .  S
C141        C142   1.371       .  D
C141        C165   1.510       .  S
C141        C261   1.508       .  S
C142        C180   1.491       .  S
C142        C252   1.486       .  S
O143        C603   1.264       .  A
O143       Cr161   1.994   1_565  S
O144       C1049   1.264       .  A
O144       Cr161   1.990       .  S
C145        O146   1.264       .  A
C145       O1048   1.264   1_455  A
O146       Cr162   1.993       .  S
O147        C600   1.264   1_545  A
O147       Cr162   2.001       .  S
C148        O599   1.264       .  A
C148       O1053   1.264       .  A
O149       C1052   1.264       .  A
O149       Cr163   1.995       .  S
O150        C151   1.265       .  A
O150       Cr163   1.995       .  S
C151        O595   1.264       .  A
O152        C612   1.265   1_545  A
O152       Cr161   1.991       .  S
O153       C1058   1.263       .  A
O153       Cr161   1.997       .  S
C154        O155   1.263       .  A
C154       O1057   1.263       .  A
O155       Cr162   2.000       .  S
O156        C609   1.264   1_545  A
O156       Cr162   1.985       .  S
C157        O608   1.264       .  A
C157       O1062   1.262   1_455  A
O158       C1061   1.262       .  A
O158       Cr163   1.994       .  S
O159        C160   1.259       .  A
O159       Cr163   1.990       .  S
C160        O604   1.265       .  A
Cr161       O164   1.790       .  S
Cr162      O1068   1.793   1_455  S
Cr163       O616   1.795       .  S
O164      Cr1066   1.793       .  S
O164       Cr615   1.795   1_545  S
C165        C166   1.407       .  A
C165        C170   1.418       .  A
C166        C167   1.393       .  A
C166        H175   1.079       .  S
C167        C168   1.414       .  A
C167        S171   1.806       .  S
C168        C169   1.402       .  A
C169        C170   1.406       .  A
C169        H176   1.082       .  S
C170        S172   1.803       .  S
S171        H174   1.408       .  S
S172        H173   1.407       .  S
C177        C178   1.405       .  A
C177        C182   1.409       .  A
C178        C179   1.412       .  A
C178        H187   1.083       .  S
C179        C180   1.419       .  A
C179        S183   1.804       .  S
C180        C181   1.402       .  A
C181        C182   1.378       .  A
C181        H188   1.083       .  S
C182        S184   1.807       .  S
S183        H186   1.407       .  S
S184        H185   1.407       .  S
C189        C190   1.413       .  A
C189        C194   1.414       .  A
C190        C191   1.408       .  A
C190        H199   1.082       .  S
C191        C192   1.413       .  A
C191        S195   1.802       .  S
C192        C193   1.400       .  A
C193        C194   1.380       .  A
C193        H200   1.085       .  S
C194        S196   1.801       .  S
S195        H198   1.405       .  S
S196        H197   1.400       .  S
C201        C202   1.405   1_655  A
C201       C1110   1.417       .  A
C201       C1023   1.508       .  S
C202        C203   1.398       .  A
C202        H211   1.080       .  S
C203        C204   1.419       .  A
C203        S207   1.806       .  S
C204       C1109   1.403   1_455  A
C205        C206   1.402       .  A
C205       C1108   1.403       .  A
C205        H212   1.083       .  S
C206       C1105   1.417       .  A
C206        S208   1.795       .  S
S207        H210   1.407       .  S
S208        H209   1.402       .  S
C213        C214   1.406   1_655  A
C213       C1122   1.428       .  A
C213       C1024   1.505       .  S
C214        C215   1.379       .  A
C214        H223   1.084       .  S
C215        C216   1.406       .  A
C215        S219   1.807       .  S
C216       C1121   1.402       .  A
C217        C218   1.408       .  A
C217       C1120   1.402       .  A
C217        H224   1.084       .  S
C218       C1117   1.428       .  A
C218        S220   1.803       .  S
S219        H222   1.407       .  S
S220        H221   1.392       .  S
C225        C230   1.422       .  A
C225        C678   1.414       .  A
C225        C574   1.517       .  S
C226        C227   1.405       .  A
C226        C677   1.414   1_545  A
C226        H235   1.083       .  S
C227        C680   1.410   1_545  A
C227        S231   1.795       .  S
C228        C229   1.413       .  A
C228        C679   1.410       .  A
C229        C230   1.405       .  A
C229        H236   1.085       .  S
C230        S232   1.807       .  S
S231        H234   1.407       .  S
S232        H233   1.400       .  S
C237        C238   1.402   1_545  A
C237        C242   1.419       .  A
C238        C239   1.404       .  A
C238        H699   1.083       .  S
C239        C240   1.421   1_565  A
C239        S695   1.795       .  S
C240        C241   1.407       .  A
C241        C242   1.399       .  A
C241        H248   1.079       .  S
C242        S244   1.806       .  S
S243        C691   1.795       .  S
S243        H246   1.404       .  S
S244        H245   1.408       .  S
H247        C690   1.083       .  S
C249        C250   1.404       .  A
C249        C254   1.414       .  A
C250        C251   1.405       .  A
C250        H259   1.084       .  S
C251        C252   1.421       .  A
C251        S255   1.805       .  S
C252        C253   1.397       .  A
C253        C254   1.378       .  A
C253        H260   1.084       .  S
C254        S256   1.807       .  S
S255        H258   1.402       .  S
S256        H257   1.407       .  S
C261        C262   1.411       .  A
C261        C266   1.419       .  A
C262        C263   1.401       .  A
C262        H271   1.084       .  S
C263        C264   1.412       .  A
C263        S267   1.797       .  S
C264        C265   1.412       .  A
C265        C266   1.402       .  A
C265        H272   1.085       .  S
C266        S268   1.807       .  S
S267        H270   1.406       .  S
S268        H269   1.403       .  S
C273        C274   1.406       .  A
C273        C278   1.421       .  A
C273        C573   1.500       .  S
C274        C275   1.380       .  A
C274        H735   1.084       .  S
C275        C276   1.407       .  A
C275        S279   1.808       .  S
C276        C277   1.404       .  A
C277        C278   1.414       .  A
C277        H284   1.083       .  S
C278        S280   1.803       .  S
S279        H282   1.407       .  S
S280        H281   1.407       .  S
H283        C726   1.084       .  S
C285        C286   1.411       .  A
C285        C290   1.411       .  A
C286        C287   1.403       .  A
C286        H295   1.085       .  S
C287        C288   1.424       .  A
C287        S291   1.804       .  S
C288        C289   1.415       .  A
C289        C290   1.407       .  A
C289       H1200   1.084       .  S
C290       S1196   1.795       .  S
S291        H294   1.395       .  S
S292       C1194   1.795   1_455  S
S292        H293   1.407       .  S
H296       C1193   1.084       .  S
C297        C298   1.404       .  A
C297        C302   1.404       .  A
C298        C299   1.415       .  A
C298        H307   1.083       .  S
C299        C300   1.424       .  A
C299        S303   1.804   1_545  S
C300        C301   1.405       .  A
C301        C302   1.381       .  A
C301        H308   1.084       .  S
C302        S304   1.805       .  S
S303        H306   1.407       .  S
S304        H305   1.407       .  S
C309        C310   1.407       .  A
C309        C314   1.416       .  A
C310        C311   1.382       .  A
C310        H319   1.083       .  S
C311        C312   1.405       .  A
C311        S315   1.797       .  S
C312        C313   1.413       .  A
C313        C314   1.414       .  A
C313        H320   1.083       .  S
C314        S316   1.800       .  S
S315        H318   1.406       .  S
S316        H317   1.406       .  S
C321        C322   1.409       .  A
C321        C326   1.415   1_455  A
C322        C323   1.401       .  A
C322        H331   1.084       .  S
C323        C324   1.423       .  A
C323        S327   1.804       .  S
C324        C325   1.411   1_455  A
C324        C961   1.516       .  S
C325        C326   1.402       .  A
C325        H332   1.084       .  S
C326        S328   1.795       .  S
S327        H330   1.397       .  S
S328        H329   1.407       .  S
C333        C338   1.403       .  A
C333        C786   1.402       .  A
C334        C335   1.405       .  A
C334        C785   1.402   1_545  A
C334        H343   1.083       .  S
C335        C788   1.422       .  A
C335        S339   1.796       .  S
C336        C337   1.414       .  A
C336        C787   1.422       .  A
C336        C498   1.528       .  S
C337        C338   1.388       .  A
C337        H344   1.063       .  S
C338        S340   1.808       .  S
S339        H342   1.404       .  S
S340        H341   1.408       .  S
C345        C346   1.403       .  A
C345        C350   1.415       .  A
C346        C347   1.384       .  A
C346        H355   1.085       .  S
C347        C348   1.417       .  A
C347        S351   1.805       .  S
C348        C349   1.414   1_455  A
C348        C962   1.508       .  S
C349        C350   1.413   1_655  A
C349       H1260   1.082       .  S
C350        S352   1.801   1_455  S
S351        H354   1.401       .  S
S352        H353   1.405   1_655  S
H356       C1253   1.082       .  S
C357        C358   1.401       .  A
C357        C362   1.404   1_556  A
C358        C359   1.408       .  A
C358        H367   1.084       .  S
C359        C360   1.430   1_556  A
C359        S363   1.804       .  S
C360        C361   1.407       .  A
C361        C362   1.379       .  A
C361        H368   1.083       .  S
C362        S364   1.807       .  S
S363        H366   1.394       .  S
S364        H365   1.406       .  S
C369        C370   1.411       .  A
C369        C374   1.411   1_545  A
C370        C371   1.404       .  A
C370        H379   1.085       .  S
C371        C372   1.421   1_556  A
C371        S375   1.805       .  S
C372        C373   1.412   1_545  A
C373        C374   1.401   1_554  A
C373        H832   1.084       .  S
C374        S828   1.798       .  S
S375        H378   1.400   1_556  S
S376        C826   1.798       .  S
S376        H829   1.406       .  S
H377        S828   1.406       .  S
H380        C825   1.084       .  S
C381        C382   1.398       .  A
C381        C386   1.414       .  A
C382        C383   1.409       .  A
C382        H391   1.082       .  S
C383        C384   1.422       .  A
C383        S387   1.803       .  S
C384        C385   1.406       .  A
C385        C386   1.393       .  A
C385        H392   1.079       .  S
C386        S388   1.805       .  S
S387        H390   1.407       .  S
S388        H389   1.407       .  S
C393        C398   1.402       .  A
C393        C846   1.407       .  A
C393        C499   1.489       .  S
C394        C395   1.405       .  A
C394        C845   1.407   1_545  A
C394        H403   1.084       .  S
C395        C848   1.422   1_545  A
C395        S399   1.796       .  S
C396        C397   1.414       .  A
C396        C847   1.422       .  A
C397        C398   1.381       .  A
C397        H404   1.076       .  S
C398        S400   1.806       .  S
S399        H402   1.407       .  S
S400        H401   1.403       .  S
C405        C406   1.404       .  A
C405        C410   1.420       .  A
C406        C407   1.396       .  A
C406        H415   1.082       .  S
C407        C408   1.420   1_556  A
C407        S411   1.805   1_556  S
C408        C409   1.407   1_554  A
C409        C410   1.407       .  A
C409        H416   1.081       .  S
C410        S412   1.810       .  S
S411        H414   1.403       .  S
S412        H413   1.407       .  S
C417        C418   1.403       .  A
C417        C422   1.406       .  A
C418        C419   1.411       .  A
C418        H427   1.083       .  S
C419        C420   1.423   1_556  A
C419        S423   1.806       .  S
C420        C421   1.403       .  A
C421        C422   1.375   1_554  A
C421        H428   1.084       .  S
C422        S424   1.807   1_556  S
S423        H426   1.407       .  S
S424        H425   1.405   1_554  S
C429        C430   1.403       .  A
C429        C434   1.419       .  A
C430        C431   1.403       .  A
C430       H1343   1.083       .  S
C431        C432   1.420   1_556  A
C431       S1339   1.794   1_556  S
C432        C433   1.409   1_554  A
C433        C434   1.401       .  A
C433        H440   1.080       .  S
C434        S436   1.806       .  S
S435       C1335   1.794   1_554  S
S435        H438   1.405       .  S
S436        H437   1.407       .  S
H439       C1334   1.083   1_455  S
C441        C442   1.405       .  A
C441        C446   1.427   1_544  A
C442        C443   1.376       .  A
C442        H451   1.076       .  S
C443        C444   1.407   1_554  A
C443        S447   1.810       .  S
C444        C445   1.406       .  A
C445        C446   1.416   1_545  A
C445        H452   1.084   1_545  S
C446        S900   1.802       .  S
S447        H450   1.407       .  S
S448        C898   1.802       .  S
S448        H449   1.390       .  S
C453        C454   1.415       .  A
C453        C458   1.421       .  A
C453        C518   1.493       .  S
C454        C455   1.405       .  A
C454        H459   1.083       .  S
C455        C456   1.396       .  A
C455        C896   1.482       .  S
C456        C457   1.392       .  A
C456        H460   1.083       .  S
C457        C458   1.410       .  A
C457        C881   1.500       .  S
C458        H461   1.083       .  S
C462        C463   1.406       .  A
C462        C467   1.417       .  A
C462        C515   1.483       .  S
C463        C464   1.397       .  A
C463        H468   1.083       .  S
C464        C465   1.395       .  A
C464        C869   1.466       .  S
C465        C466   1.396       .  A
C465        H469   1.082       .  S
C466        C467   1.414       .  A
C466        C857   1.501       .  S
C467        H470   1.083       .  S
C471        C472   1.413       .  A
C471        C476   1.417       .  A
C471        C612   1.479       .  S
C472        C473   1.411       .  A
C473        C474   1.404       .  A
C473        C848   1.507       .  S
C474        C475   1.389       .  A
C474        H478   1.084       .  S
C475        C476   1.399       .  A
C475        C833   1.485       .  S
C476        H479   1.083       .  S
C480        C481   1.425       .  A
C480        C485   1.411       .  A
C480        C521   1.489       .  S
C481        C482   1.413       .  A
C481        H486   1.081       .  S
C482        C483   1.393       .  A
C482        C821   1.499       .  S
C483        C484   1.390       .  A
C483        H487   1.085       .  S
C484        C485   1.398       .  A
C484        C809   1.471       .  S
C485        H488   1.083       .  S
C489        C490   1.421       .  A
C489        C494   1.415       .  A
C489        C609   1.484       .  S
C490        C491   1.412       .  A
C490       H1399   1.083   1_455  S
C491        C492   1.394       .  A
C491        C797   1.490       .  S
C492        C493   1.389       .  A
C492        H496   1.085       .  S
C493        C494   1.391       .  A
C493        C785   1.479       .  S
H495       C1394   1.083       .  S
C498        C499   1.377       .  D
C498        C824   1.511       .  S
C499        C893   1.508       .  S
C500        C501   1.421       .  A
C500        C505   1.420       .  A
C500        C606   1.495       .  S
C501        C502   1.407       .  A
C501       H1410   1.080   1_455  S
C502        C503   1.396       .  A
C502        C773   1.506       .  S
C503        C504   1.394       .  A
C503        H507   1.082       .  S
C504        C505   1.411       .  A
C504        C761   1.495       .  S
C505        H508   1.082       .  S
H506       C1405   1.080       .  S
C509        C510   1.380       .  D
C509       C1680   1.516       .  S
C509        C884   1.521       .  S
C510       C1704   1.508       .  S
C510        C872   1.497       .  S
C511        C512   1.376       .  D
C511        C764   1.501       .  S
C511        C812   1.505       .  S
C512        C836   1.513       .  S
C512        C860   1.507       .  S
O513        C521   1.262       .  A
O514        C515   1.262       .  A
O514      Cr1435   1.982       .  S
C515        O516   1.261       .  A
O516       Cr532   1.997       .  S
O517        C518   1.266       .  A
C518        O519   1.265       .  A
O519      Cr1437   2.004       .  S
O520        C521   1.266       .  A
O520       Cr533   1.995       .  S
O522        C530   1.260       .  A
O523        C524   1.263       .  A
O523      Cr1435   1.990       .  S
C524        C584   1.476       .  S
C524        O525   1.264       .  A
O525       Cr532   1.989       .  S
O526        C527   1.263       .  A
C527        C535   1.488       .  S
C527        O528   1.266       .  A
O528      Cr1437   2.003       .  S
O529        C530   1.266       .  A
O529       Cr533   2.002       .  S
C530        C553   1.482       .  S
Cr531      O1418   1.982   1_455  S
Cr531      O1427   1.990   1_455  S
Cr531       O986   1.794   1_465  S
Cr533      O1423   2.004   1_455  S
Cr533      O1432   2.003   1_455  S
Cr533      O1438   1.790   1_455  S
O534       Cr983   1.794       .  S
O534      Cr1437   1.790       .  S
C535        C536   1.414       .  A
C535        C540   1.423       .  A
C536        C537   1.394       .  A
C536        H541   1.084       .  S
C537        C538   1.389       .  A
C537        C749   1.479       .  S
C538        C539   1.399       .  A
C538        H542   1.084       .  S
C539        C540   1.420       .  A
C539        C737   1.510       .  S
C540        H543   1.080       .  S
C544        C545   1.415       .  A
C544        C549   1.419       .  A
C544        C603   1.483       .  S
C545        C546   1.397       .  A
C546        C547   1.388       .  A
C546        C728   1.477       .  S
C547        C548   1.396       .  A
C547        H551   1.085       .  S
C548        C549   1.414       .  A
C548        C716   1.499       .  S
C549        H552   1.081       .  S
C553        C554   1.408       .  A
C553        C558   1.421       .  A
C554        C555   1.396       .  A
C554        H559   1.084       .  S
C555        C556   1.388       .  A
C555        C701   1.475       .  S
C556        C557   1.396       .  A
C556        H560   1.082       .  S
C557        C558   1.416       .  A
C557        C689   1.499       .  S
C558        H561   1.083       .  S
C562        C563   1.411       .  A
C562        C567   1.424       .  A
C562        C600   1.491       .  S
C563        C564   1.393       .  A
C563       H1472   1.084       .  S
C564        C565   1.386       .  A
C564        C668   1.473       .  S
C565        C566   1.398       .  A
C565        H569   1.084       .  S
C566        C567   1.423       .  A
C566        C680   1.508       .  S
H568       C1467   1.084       .  S
C571        C572   1.379       .  D
C571       C1557   1.508       .  S
C571        C740   1.523       .  S
C572        C641   1.497       .  S
C572       C1569   1.505       .  S
C573        C574   1.381       .  D
C573        C752   1.504       .  S
C574        C692   1.517       .  S
C575        C576   1.417       .  A
C575        C580   1.411       .  A
C575        C597   1.480       .  S
C576        C577   1.414       .  A
C576       H1485   1.083   1_455  S
C577        C578   1.395       .  A
C577        C656   1.495       .  S
C578        C579   1.390       .  A
C578        H582   1.083       .  S
C579        C580   1.396       .  A
C579        C629   1.475       .  S
C580        H583   1.084       .  S
H581       C1480   1.083       .  S
C584        C585   1.415       .  A
C584        C589   1.414       .  A
C585        C586   1.408       .  A
C585        H590   1.083       .  S
C586        C587   1.395       .  A
C586        C620   1.490       .  S
C587        C588   1.389       .  A
C587        H591   1.083       .  S
C588        C589   1.399       .  A
C588        C644   1.479       .  S
C589        H592   1.083       .  S
C593        C594   1.371       .  D
C593        C617   1.510       .  S
C593        C713   1.508       .  S
C594        C632   1.491       .  S
C594        C704   1.486       .  S
O595       Cr613   1.994       .  S
O596       C1501   1.264       .  A
O596       Cr613   1.990       .  S
C597       O1500   1.264   1_455  A
C597        O598   1.264       .  A
O598       Cr614   1.993       .  S
O599       Cr614   2.001       .  S
C600       O1505   1.264       .  A
O601       C1504   1.264       .  A
O601       Cr615   1.995       .  S
O602        C603   1.265       .  A
O602       Cr615   1.995       .  S
O604       Cr613   1.991       .  S
O605       C1510   1.263       .  A
O605       Cr613   1.997       .  S
C606       O1509   1.263       .  A
C606        O607   1.263       .  A
O607       Cr614   2.000       .  S
O608       Cr614   1.985       .  S
C609       O1514   1.262   1_455  A
O610       C1513   1.262       .  A
O610       Cr615   1.994       .  S
O611        C612   1.259       .  A
O611       Cr615   1.990       .  S
Cr613       O616   1.790       .  S
Cr614      O1520   1.793   1_455  S
O616      Cr1518   1.793       .  S
C617        C618   1.407       .  A
C617        C622   1.418       .  A
C618        C619   1.393       .  A
C618        H627   1.079       .  S
C619        C620   1.414       .  A
C619        S623   1.806       .  S
C620        C621   1.402       .  A
C621        C622   1.406       .  A
C621        H628   1.082       .  S
C622        S624   1.803       .  S
S623        H626   1.408       .  S
S624        H625   1.407       .  S
C629        C630   1.405       .  A
C629        C634   1.409       .  A
C630        C631   1.412       .  A
C630        H639   1.083       .  S
C631        C632   1.419       .  A
C631        S635   1.804       .  S
C632        C633   1.402       .  A
C633        C634   1.378       .  A
C633        H640   1.083       .  S
C634        S636   1.807       .  S
S635        H638   1.407       .  S
S636        H637   1.407       .  S
C641        C642   1.413       .  A
C641        C646   1.414       .  A
C642        C643   1.408       .  A
C642        H651   1.082       .  S
C643        C644   1.413       .  A
C643        S647   1.802       .  S
C644        C645   1.400       .  A
C645        C646   1.380       .  A
C645        H652   1.085       .  S
C646        S648   1.801       .  S
S647        H650   1.405       .  S
S648        H649   1.400       .  S
C653        C654   1.405   1_655  A
C653       C1562   1.417       .  A
C653       C1475   1.508       .  S
C654        C655   1.398       .  A
C654        H663   1.080       .  S
C655        C656   1.419       .  A
C655        S659   1.806       .  S
C656       C1561   1.403   1_455  A
C657       C1560   1.403       .  A
C657        C658   1.402       .  A
C657        H664   1.083       .  S
C658       C1557   1.417       .  A
C658        S660   1.795       .  S
S659        H662   1.407       .  S
S660        H661   1.402       .  S
C665        C666   1.406   1_655  A
C665       C1574   1.428       .  A
C665       C1476   1.505       .  S
C666        C667   1.379       .  A
C666        H675   1.084       .  S
C667        C668   1.406       .  A
C667        S671   1.807       .  S
C668       C1573   1.402       .  A
C669       C1572   1.402       .  A
C669        C670   1.408       .  A
C669        H676   1.084       .  S
C670       C1569   1.428       .  A
C670        S672   1.803       .  S
S671        H674   1.407       .  S
S672        H673   1.392       .  S
C677        C682   1.422       .  A
C678        C679   1.405       .  A
C678        H687   1.083       .  S
C679        S683   1.795       .  S
C680        C681   1.413       .  A
C681        C682   1.405       .  A
C681        H688   1.085       .  S
C682        S684   1.807       .  S
S683        H686   1.407       .  S
S684        H685   1.400       .  S
C689        C690   1.402       .  A
C689        C694   1.419       .  A
C690        C691   1.404       .  A
C691        C692   1.421       .  A
C692        C693   1.407       .  A
C693        C694   1.399       .  A
C693        H700   1.079       .  S
C694        S696   1.806       .  S
S695        H698   1.404       .  S
S696        H697   1.408       .  S
C701        C702   1.404       .  A
C701        C706   1.414       .  A
C702        C703   1.405       .  A
C702        H711   1.084       .  S
C703        C704   1.421       .  A
C703        S707   1.805       .  S
C704        C705   1.397       .  A
C705        C706   1.378       .  A
C705        H712   1.084       .  S
C706        S708   1.807       .  S
S707        H710   1.402       .  S
S708        H709   1.407       .  S
C713        C714   1.411       .  A
C713        C718   1.419       .  A
C714        C715   1.401       .  A
C714        H723   1.084       .  S
C715        C716   1.412       .  A
C715        S719   1.797       .  S
C716        C717   1.412       .  A
C717        C718   1.402       .  A
C717        H724   1.085       .  S
C718        S720   1.807       .  S
S719        H722   1.406       .  S
S720        H721   1.403       .  S
C725        C726   1.406       .  A
C725        C730   1.421   1_565  A
C726        C727   1.380       .  A
C727        C728   1.407       .  A
C727        S731   1.808       .  S
C728        C729   1.404       .  A
C729        C730   1.414   1_565  A
C729        H736   1.083   1_565  S
C730        S732   1.803       .  S
S731        H734   1.407       .  S
S732        H733   1.407       .  S
C737        C738   1.411       .  A
C737        C742   1.411       .  A
C738        C739   1.403       .  A
C738        H747   1.085       .  S
C739        C740   1.424       .  A
C739        S743   1.804       .  S
C740        C741   1.415       .  A
C741        C742   1.407       .  A
C741       H1652   1.084       .  S
C742       S1648   1.795       .  S
S743        H746   1.395       .  S
S744       C1646   1.795   1_455  S
S744        H745   1.407       .  S
H748       C1645   1.084       .  S
C749        C750   1.404       .  A
C749        C754   1.405       .  A
C750        C751   1.415       .  A
C750        H759   1.083       .  S
C751        C752   1.424       .  A
C751        S755   1.804       .  S
C752        C753   1.405       .  A
C753        C754   1.381       .  A
C753        H760   1.084       .  S
C754        S756   1.805       .  S
S755        H758   1.407       .  S
S756        H757   1.407       .  S
C761        C762   1.407       .  A
C761        C766   1.416       .  A
C762        C763   1.382       .  A
C762        H771   1.083       .  S
C763        C764   1.405       .  A
C763        S767   1.797       .  S
C764        C765   1.413       .  A
C765        C766   1.414       .  A
C765        H772   1.083       .  S
C766        S768   1.800       .  S
S767        H770   1.406       .  S
S768        H769   1.406       .  S
C773        C774   1.409       .  A
C773        C778   1.415   1_455  A
C774        C775   1.401       .  A
C774        H783   1.084       .  S
C775        C776   1.423       .  A
C775        S779   1.804       .  S
C776        C777   1.411   1_455  A
C776       C1413   1.516       .  S
C777        C778   1.402       .  A
C777        H784   1.084       .  S
C778        S780   1.795       .  S
S779        H782   1.397       .  S
S780        H781   1.407       .  S
C785        C790   1.403       .  A
C786        C787   1.405       .  A
C786        H795   1.083       .  S
C787        S791   1.796       .  S
C788        C789   1.414   1_545  A
C789        C790   1.388       .  A
C789        H796   1.063       .  S
C790        S792   1.808       .  S
S791        H794   1.404       .  S
S792        H793   1.408       .  S
C797        C798   1.403       .  A
C797        C802   1.415       .  A
C798        C799   1.384       .  A
C798        H807   1.085       .  S
C799        C800   1.417       .  A
C799        S803   1.805       .  S
C800        C801   1.414   1_455  A
C800       C1414   1.508       .  S
C801        C802   1.413   1_655  A
C801       H1712   1.082       .  S
C802        S804   1.801   1_455  S
S803        H806   1.401       .  S
S804        H805   1.405   1_655  S
H808       C1705   1.082       .  S
C809        C810   1.401       .  A
C809        C814   1.404   1_556  A
C810        C811   1.408       .  A
C810        H819   1.084       .  S
C811        C812   1.430   1_556  A
C811        S815   1.804       .  S
C812        C813   1.407       .  A
C813        C814   1.379       .  A
C813        H820   1.083       .  S
C814        S816   1.807       .  S
S815        H818   1.394       .  S
S816        H817   1.406       .  S
C821        C822   1.411       .  A
C821        C826   1.411       .  A
C822        C823   1.404       .  A
C822        H831   1.085       .  S
C823        C824   1.421   1_556  A
C823        S827   1.805       .  S
C824        C825   1.412       .  A
C825        C826   1.401   1_554  A
S827        H830   1.400   1_556  S
C833        C834   1.398       .  A
C833        C838   1.414       .  A
C834        C835   1.409       .  A
C834        H843   1.082       .  S
C835        C836   1.422       .  A
C835        S839   1.803       .  S
C836        C837   1.406       .  A
C837        C838   1.393       .  A
C837        H844   1.079       .  S
C838        S840   1.805       .  S
S839        H842   1.407       .  S
S840        H841   1.407       .  S
C845        C850   1.402       .  A
C846        C847   1.405       .  A
C846        H855   1.084       .  S
C847        S851   1.796       .  S
C848        C849   1.414       .  A
C849        C850   1.381       .  A
C849        H856   1.076       .  S
C850        S852   1.806       .  S
S851        H854   1.407       .  S
S852        H853   1.403       .  S
C857        C858   1.404       .  A
C857        C862   1.420       .  A
C858        C859   1.396       .  A
C858        H867   1.082       .  S
C859        C860   1.420   1_556  A
C859        S863   1.805   1_556  S
C860        C861   1.407   1_554  A
C861        C862   1.407       .  A
C861        H868   1.081       .  S
C862        S864   1.810       .  S
S863        H866   1.403       .  S
S864        H865   1.407       .  S
C869        C870   1.403       .  A
C869        C874   1.406       .  A
C870        C871   1.411       .  A
C870        H879   1.083       .  S
C871        C872   1.423   1_556  A
C871        S875   1.806       .  S
C872        C873   1.403       .  A
C873        C874   1.375   1_554  A
C873        H880   1.084       .  S
C874        S876   1.807   1_556  S
S875        H878   1.407       .  S
S876        H877   1.405   1_554  S
C881        C882   1.403       .  A
C881        C886   1.419       .  A
C882        C883   1.403       .  A
C882       H1795   1.083       .  S
C883        C884   1.420   1_556  A
C883       S1791   1.794   1_556  S
C884        C885   1.409   1_554  A
C885        C886   1.401       .  A
C885        H892   1.080       .  S
C886        S888   1.806       .  S
S887       C1787   1.794   1_554  S
S887        H890   1.405       .  S
S888        H889   1.407       .  S
H891       C1786   1.083   1_455  S
C893        C894   1.405       .  A
C893        C898   1.427   1_554  A
C894        C895   1.376       .  A
C894        H903   1.076       .  S
C895        C896   1.407   1_554  A
C895        S899   1.810       .  S
C896        C897   1.406       .  A
C897        C898   1.416       .  A
C897        H904   1.084       .  S
S899        H902   1.407       .  S
S900        H901   1.390       .  S
C905        C906   1.415       .  A
C905        C910   1.421       .  A
C905        C970   1.493       .  S
C906        C907   1.405       .  A
C906        H911   1.083       .  S
C907        C908   1.396       .  A
C907       C1348   1.482       .  S
C908        C909   1.392       .  A
C908        H912   1.083       .  S
C909        C910   1.410       .  A
C909       C1333   1.500       .  S
C910        H913   1.083       .  S
C914        C915   1.406       .  A
C914        C919   1.417       .  A
C914        C967   1.483       .  S
C915        C916   1.397       .  A
C915        H920   1.083       .  S
C916        C917   1.395       .  A
C916       C1321   1.466       .  S
C917        C918   1.396       .  A
C917        H921   1.082       .  S
C918        C919   1.414       .  A
C918       C1309   1.501       .  S
C919        H922   1.083       .  S
C923        C924   1.413       .  A
C923        C928   1.417       .  A
C923       C1064   1.479       .  S
C924        C925   1.411       .  A
C924       H1381   1.077       .  S
C925        C926   1.404       .  A
C925       C1300   1.507       .  S
C926        C927   1.389       .  A
C926        H930   1.084       .  S
C927        C928   1.399       .  A
C927       C1285   1.485       .  S
C928        H931   1.083       .  S
H929       C1376   1.077       .  S
C932        C933   1.425       .  A
C932        C937   1.411       .  A
C932        C973   1.489       .  S
C933        C934   1.413       .  A
C933        H938   1.081       .  S
C934        C935   1.393       .  A
C934       C1273   1.499       .  S
C935        C936   1.390       .  A
C935        H939   1.085       .  S
C936        C937   1.398       .  A
C936       C1261   1.471       .  S
C937        H940   1.083       .  S
C941        C942   1.421       .  A
C941        C946   1.415       .  A
C941       C1061   1.484       .  S
C942        C943   1.412       .  A
C943        C944   1.394       .  A
C943       C1249   1.490       .  S
C944        C945   1.389       .  A
C944        H948   1.085       .  S
C945        C946   1.391       .  A
C945       C1237   1.479       .  S
C946       H1401   1.083       .  S
H949       C1398   1.083   1_545  S
C950        C951   1.377       .  D
C950       C1692   1.528       .  S
C950       C1276   1.511       .  S
C951       C1749   1.489   1_545  S
C951       C1345   1.508       .  S
C952        C953   1.421       .  A
C952        C957   1.420       .  A
C952       C1058   1.495       .  S
C953        C954   1.407       .  A
C954        C955   1.396       .  A
C954       C1225   1.506       .  S
C955        C956   1.394       .  A
C955        H959   1.082       .  S
C956        C957   1.411       .  A
C956       C1213   1.495       .  S
C957        H960   1.082       .  S
C961        C962   1.380       .  D
C961       C1336   1.521   1_455  S
C962       C1324   1.497   1_455  S
C963        C964   1.376       .  D
C963       C1216   1.501       .  S
C963       C1264   1.505       .  S
C964       C1288   1.513       .  S
C964       C1312   1.507       .  S
O965        C973   1.262       .  A
O965      Cr1435   1.998   1_545  S
O966        C967   1.262       .  A
C967        O968   1.261       .  A
O968       Cr984   1.997       .  S
O969        C970   1.266       .  A
O969      Cr1436   1.996   1_545  S
C970        O971   1.265       .  A
O972        C973   1.266       .  A
O972       Cr985   1.995       .  S
O974        C982   1.260       .  A
O974      Cr1435   1.983   1_545  S
O975        C976   1.263       .  A
C976       C1036   1.476       .  S
C976        O977   1.264       .  A
O977       Cr984   1.989       .  S
O978        C979   1.263       .  A
O978      Cr1436   1.993   1_545  S
C979        C987   1.488       .  S
C979        O980   1.266       .  A
O981        C982   1.266       .  A
O981       Cr985   2.002       .  S
C982       C1005   1.482       .  S
Cr983      O1417   1.998       .  S
Cr983      O1426   1.983       .  S
Cr984      O1421   1.996       .  S
Cr984      O1430   1.993       .  S
Cr984      O1438   1.792       .  S
O986      Cr1436   1.792   1_545  S
C987        C988   1.414       .  A
C987        C992   1.423       .  A
C988        C989   1.394       .  A
C988        H993   1.084       .  S
C989        C990   1.389       .  A
C989       C1201   1.479       .  S
C990        C991   1.399       .  A
C990        H994   1.084       .  S
C991        C992   1.420       .  A
C991       C1189   1.510       .  S
C992        H995   1.080       .  S
C996        C997   1.415       .  A
C996       C1001   1.419       .  A
C996       C1055   1.483       .  S
C997        C998   1.397       .  A
C997       H1454   1.083       .  S
C998        C999   1.388       .  A
C998       C1180   1.477       .  S
C999       C1000   1.396       .  A
C999       H1003   1.085       .  S
C1000      C1001   1.414       .  A
C1000      C1168   1.499       .  S
C1001      H1004   1.081       .  S
H1002      C1449   1.083   1_545  S
C1005      C1006   1.408       .  A
C1005      C1010   1.421       .  A
C1006      C1007   1.396       .  A
C1006      H1011   1.084       .  S
C1007      C1008   1.388       .  A
C1007      C1153   1.475       .  S
C1008      C1009   1.396       .  A
C1008      H1012   1.082       .  S
C1009      C1010   1.416       .  A
C1009      C1141   1.499       .  S
C1010      H1013   1.083       .  S
C1014      C1015   1.411       .  A
C1014      C1019   1.424       .  A
C1014      C1052   1.491       .  S
C1015      C1016   1.393       .  A
C1016      C1017   1.386       .  A
C1016      C1120   1.473       .  S
C1017      C1018   1.398       .  A
C1017      H1021   1.084       .  S
C1018      C1019   1.423       .  A
C1018      C1132   1.508       .  S
C1019      H1474   1.080       .  S
H1022      C1471   1.080   1_545  S
C1023      C1024   1.379       .  D
C1023      C1192   1.523       .  S
C1024      C1093   1.497       .  S
C1025      C1026   1.381       .  D
C1025      C1629   1.500   1_545  S
C1025      C1204   1.504       .  S
C1026      C1581   1.517   1_545  S
C1026      C1144   1.517       .  S
C1027      C1028   1.417       .  A
C1027      C1032   1.411       .  A
C1027      C1049   1.480       .  S
C1028      C1029   1.414       .  A
C1029      C1030   1.395       .  A
C1029      C1108   1.495       .  S
C1030      C1031   1.390       .  A
C1030      H1034   1.083       .  S
C1031      C1032   1.396       .  A
C1031      C1081   1.475       .  S
C1032      H1035   1.084       .  S
C1036      C1037   1.415       .  A
C1036      C1041   1.414       .  A
C1037      C1038   1.408       .  A
C1037      H1042   1.083       .  S
C1038      C1039   1.395       .  A
C1038      C1072   1.490       .  S
C1039      C1040   1.389       .  A
C1039      H1043   1.083       .  S
C1040      C1041   1.399       .  A
C1040      C1096   1.479       .  S
C1041      H1044   1.083       .  S
C1045      C1046   1.371       .  D
C1045      C1069   1.510       .  S
C1045      C1165   1.508       .  S
C1046      C1084   1.491       .  S
C1046      C1156   1.486       .  S
O1047      C1507   1.264       .  A
O1047     Cr1065   1.994   1_565  S
O1048     Cr1065   1.990       .  S
C1049      O1050   1.264       .  A
O1050     Cr1066   1.993       .  S
O1051      C1504   1.264   1_545  A
O1051     Cr1066   2.001       .  S
C1052      O1503   1.264       .  A
O1053     Cr1067   1.995   1_455  S
O1054      C1055   1.265       .  A
O1054     Cr1067   1.995       .  S
C1055      O1499   1.264       .  A
O1056      C1516   1.265   1_545  A
O1056     Cr1065   1.991       .  S
O1057     Cr1065   1.997   1_455  S
C1058      O1059   1.263       .  A
O1059     Cr1066   2.000       .  S
O1060      C1513   1.264   1_545  A
O1060     Cr1066   1.985       .  S
C1061      O1512   1.264       .  A
O1062     Cr1067   1.994       .  S
O1063      C1064   1.259       .  A
O1063     Cr1067   1.990       .  S
C1064      O1508   1.265       .  A
Cr1065     O1068   1.790       .  S
Cr1067     O1520   1.795       .  S
O1068     Cr1519   1.795   1_545  S
C1069      C1070   1.407       .  A
C1069      C1074   1.418       .  A
C1070      C1071   1.393       .  A
C1070      H1079   1.079       .  S
C1071      C1072   1.414       .  A
C1071      S1075   1.806       .  S
C1072      C1073   1.402       .  A
C1073      C1074   1.406       .  A
C1073      H1080   1.082       .  S
C1074      S1076   1.803       .  S
S1075      H1078   1.408       .  S
S1076      H1077   1.407       .  S
C1081      C1082   1.405       .  A
C1081      C1086   1.409       .  A
C1082      C1083   1.412       .  A
C1082      H1091   1.083       .  S
C1083      C1084   1.419       .  A
C1083      S1087   1.804       .  S
C1084      C1085   1.402       .  A
C1085      C1086   1.378       .  A
C1085      H1092   1.083       .  S
C1086      S1088   1.807       .  S
S1087      H1090   1.407       .  S
S1088      H1089   1.407       .  S
C1093      C1094   1.413       .  A
C1093      C1098   1.414       .  A
C1094      C1095   1.408       .  A
C1094      H1103   1.082       .  S
C1095      C1096   1.413       .  A
C1095      S1099   1.802       .  S
C1096      C1097   1.400       .  A
C1097      C1098   1.380       .  A
C1097      H1104   1.085       .  S
C1098      S1100   1.801       .  S
S1099      H1102   1.405       .  S
S1100      H1101   1.400       .  S
C1105      C1106   1.405       .  A
C1106      C1107   1.398       .  A
C1106      H1115   1.080       .  S
C1107      C1108   1.419       .  A
C1107      S1111   1.806       .  S
C1109      C1110   1.402       .  A
C1109      H1116   1.083       .  S
C1110      S1112   1.795       .  S
S1111      H1114   1.407       .  S
S1112      H1113   1.402       .  S
C1117      C1118   1.406       .  A
C1118      C1119   1.379       .  A
C1118      H1127   1.084       .  S
C1119      C1120   1.406       .  A
C1119      S1123   1.807       .  S
C1121      C1122   1.408   1_455  A
C1121      H1128   1.084   1_455  S
C1122      S1124   1.803       .  S
S1123      H1126   1.407       .  S
S1124      H1125   1.392       .  S
C1129      C1582   1.414       .  A
C1129      C1134   1.422       .  A
C1129      C1478   1.517       .  S
C1130      C1581   1.414   1_545  A
C1130      C1131   1.405       .  A
C1130      H1139   1.083       .  S
C1131      C1584   1.410   1_545  A
C1131      S1135   1.795       .  S
C1132      C1583   1.410       .  A
C1132      C1133   1.413       .  A
C1133      C1134   1.405       .  A
C1133      H1140   1.085       .  S
C1134      S1136   1.807       .  S
S1135      H1138   1.407       .  S
S1136      H1137   1.400       .  S
C1141      C1142   1.402   1_545  A
C1141      C1146   1.419       .  A
C1142      C1143   1.404       .  A
C1142      H1603   1.083       .  S
C1143      C1144   1.421   1_565  A
C1143      S1599   1.795       .  S
C1144      C1145   1.407       .  A
C1145      C1146   1.399       .  A
C1145      H1152   1.079       .  S
C1146      S1148   1.806       .  S
S1147      C1595   1.795       .  S
S1147      H1150   1.404       .  S
S1148      H1149   1.408       .  S
H1151      C1594   1.083       .  S
C1153      C1154   1.404       .  A
C1153      C1158   1.414       .  A
C1154      C1155   1.405       .  A
C1154      H1163   1.084       .  S
C1155      C1156   1.421       .  A
C1155      S1159   1.805       .  S
C1156      C1157   1.397       .  A
C1157      C1158   1.378       .  A
C1157      H1164   1.084       .  S
C1158      S1160   1.807       .  S
S1159      H1162   1.402       .  S
S1160      H1161   1.407       .  S
C1165      C1166   1.411       .  A
C1165      C1170   1.419       .  A
C1166      C1167   1.401       .  A
C1166      H1175   1.084       .  S
C1167      C1168   1.412       .  A
C1167      S1171   1.797       .  S
C1168      C1169   1.412       .  A
C1169      C1170   1.402       .  A
C1169      H1176   1.085       .  S
C1170      S1172   1.807       .  S
S1171      H1174   1.406       .  S
S1172      H1173   1.403       .  S
C1177      C1178   1.406       .  A
C1177      C1182   1.421       .  A
C1177      C1477   1.500       .  S
C1178      C1179   1.380       .  A
C1178      H1639   1.084       .  S
C1179      C1180   1.407       .  A
C1179      S1183   1.808       .  S
C1180      C1181   1.404       .  A
C1181      C1182   1.414       .  A
C1181      H1188   1.083       .  S
C1182      S1184   1.803       .  S
S1183      H1186   1.407       .  S
S1184      H1185   1.407       .  S
H1187      C1630   1.084       .  S
C1189      C1190   1.411       .  A
C1189      C1194   1.411       .  A
C1190      C1191   1.403       .  A
C1190      H1199   1.085       .  S
C1191      C1192   1.424       .  A
C1191      S1195   1.804       .  S
C1192      C1193   1.415   1_655  A
C1193      C1194   1.407   1_455  A
S1195      H1198   1.395       .  S
S1196      H1197   1.407       .  S
C1201      C1202   1.404       .  A
C1201      C1206   1.404       .  A
C1202      C1203   1.415       .  A
C1202      H1211   1.083       .  S
C1203      C1204   1.424       .  A
C1203      S1207   1.804   1_545  S
C1204      C1205   1.405       .  A
C1205      C1206   1.381       .  A
C1205      H1212   1.084       .  S
C1206      S1208   1.805       .  S
S1207      H1210   1.407       .  S
S1208      H1209   1.407       .  S
C1213      C1214   1.407       .  A
C1213      C1218   1.416       .  A
C1214      C1215   1.382       .  A
C1214      H1223   1.083       .  S
C1215      C1216   1.405       .  A
C1215      S1219   1.797       .  S
C1216      C1217   1.413       .  A
C1217      C1218   1.414       .  A
C1217      H1224   1.083       .  S
C1218      S1220   1.800       .  S
S1219      H1222   1.406       .  S
S1220      H1221   1.406       .  S
C1225      C1226   1.409       .  A
C1225      C1230   1.415       .  A
C1226      C1227   1.401       .  A
C1226      H1235   1.084       .  S
C1227      C1228   1.423       .  A
C1227      S1231   1.804       .  S
C1228      C1229   1.411       .  A
C1229      C1230   1.402       .  A
C1229      H1236   1.084       .  S
C1230      S1232   1.795       .  S
S1231      H1234   1.397       .  S
S1232      H1233   1.407       .  S
C1237      C1690   1.402       .  A
C1237      C1242   1.403       .  A
C1238      C1689   1.402   1_545  A
C1238      C1239   1.405       .  A
C1238      H1247   1.083       .  S
C1239      C1692   1.422       .  A
C1239      S1243   1.796       .  S
C1240      C1691   1.422       .  A
C1240      C1241   1.414       .  A
C1240      C1402   1.528       .  S
C1241      C1242   1.388       .  A
C1241      H1248   1.063       .  S
C1242      S1244   1.808       .  S
S1243      H1246   1.404       .  S
S1244      H1245   1.408       .  S
C1249      C1250   1.403       .  A
C1249      C1254   1.415       .  A
C1250      C1251   1.384       .  A
C1250      H1259   1.085       .  S
C1251      C1252   1.417       .  A
C1251      S1255   1.805       .  S
C1252      C1253   1.414       .  A
C1253      C1254   1.413       .  A
C1254      S1256   1.801       .  S
S1255      H1258   1.401       .  S
S1256      H1257   1.405       .  S
C1261      C1262   1.401       .  A
C1261      C1266   1.404   1_556  A
C1262      C1263   1.408       .  A
C1262      H1271   1.084       .  S
C1263      C1264   1.430   1_556  A
C1263      S1267   1.804       .  S
C1264      C1265   1.407       .  A
C1265      C1266   1.379       .  A
C1265      H1272   1.083       .  S
C1266      S1268   1.807       .  S
S1267      H1270   1.394       .  S
S1268      H1269   1.406       .  S
C1273      C1274   1.411       .  A
C1273      C1278   1.411   1_545  A
C1274      C1275   1.404       .  A
C1274      H1283   1.085       .  S
C1275      C1276   1.421   1_556  A
C1275      S1279   1.805       .  S
C1276      C1277   1.412   1_545  A
C1277      C1278   1.401   1_554  A
C1277      H1736   1.084       .  S
C1278      S1732   1.798       .  S
S1279      H1282   1.400   1_556  S
S1280      C1730   1.798       .  S
S1280      H1733   1.406       .  S
H1281      S1732   1.406       .  S
H1284      C1729   1.084       .  S
C1285      C1286   1.398       .  A
C1285      C1290   1.414       .  A
C1286      C1287   1.409       .  A
C1286      H1295   1.082       .  S
C1287      C1288   1.422       .  A
C1287      S1291   1.803       .  S
C1288      C1289   1.406       .  A
C1289      C1290   1.393       .  A
C1289      H1296   1.079       .  S
C1290      S1292   1.805       .  S
S1291      H1294   1.407       .  S
S1292      H1293   1.407       .  S
C1297      C1750   1.407       .  A
C1297      C1302   1.402       .  A
C1297      C1403   1.489       .  S
C1298      C1749   1.407   1_545  A
C1298      C1299   1.405       .  A
C1298      H1307   1.084       .  S
C1299      C1752   1.422   1_545  A
C1299      S1303   1.796       .  S
C1300      C1751   1.422       .  A
C1300      C1301   1.414       .  A
C1301      C1302   1.381       .  A
C1301      H1308   1.076       .  S
C1302      S1304   1.806       .  S
S1303      H1306   1.407       .  S
S1304      H1305   1.403       .  S
C1309      C1310   1.404       .  A
C1309      C1314   1.420       .  A
C1310      C1311   1.396       .  A
C1310      H1319   1.082       .  S
C1311      C1312   1.420   1_556  A
C1311      S1315   1.805   1_556  S
C1312      C1313   1.407   1_554  A
C1313      C1314   1.407       .  A
C1313      H1320   1.081       .  S
C1314      S1316   1.810       .  S
S1315      H1318   1.403       .  S
S1316      H1317   1.407       .  S
C1321      C1322   1.403       .  A
C1321      C1326   1.406       .  A
C1322      C1323   1.411       .  A
C1322      H1331   1.083       .  S
C1323      C1324   1.423   1_556  A
C1323      S1327   1.806   1_655  S
C1324      C1325   1.403       .  A
C1325      C1326   1.375   1_554  A
C1325      H1332   1.084       .  S
C1326      S1328   1.807   1_556  S
S1327      H1330   1.407       .  S
S1328      H1329   1.405   1_554  S
C1333      C1334   1.403       .  A
C1333      C1338   1.419       .  A
C1334      C1335   1.403   1_655  A
C1335      C1336   1.420   1_456  A
C1336      C1337   1.409   1_554  A
C1337      C1338   1.401       .  A
C1337      H1344   1.080       .  S
C1338      S1340   1.806       .  S
S1339      H1342   1.405       .  S
S1340      H1341   1.407       .  S
C1345      C1346   1.405       .  A
C1345      C1350   1.427   1_544  A
C1346      C1347   1.376       .  A
C1346      H1355   1.076       .  S
C1347      C1348   1.407   1_554  A
C1347      S1351   1.810       .  S
C1348      C1349   1.406       .  A
C1349      C1350   1.416   1_545  A
C1349      H1356   1.084   1_545  S
C1350      S1804   1.802       .  S
S1351      H1354   1.407       .  S
S1352      C1802   1.802       .  S
S1352      H1353   1.390       .  S
C1357      C1358   1.415       .  A
C1357      C1362   1.421       .  A
C1357      C1422   1.493       .  S
C1358      C1359   1.405       .  A
C1358      H1363   1.083       .  S
C1359      C1360   1.396       .  A
C1359      C1800   1.482       .  S
C1360      C1361   1.392       .  A
C1360      H1364   1.083       .  S
C1361      C1362   1.410       .  A
C1361      C1785   1.500       .  S
C1362      H1365   1.083       .  S
C1366      C1367   1.406       .  A
C1366      C1371   1.417       .  A
C1366      C1419   1.483       .  S
C1367      C1368   1.397       .  A
C1367      H1372   1.083       .  S
C1368      C1369   1.395       .  A
C1368      C1773   1.466       .  S
C1369      C1370   1.396       .  A
C1369      H1373   1.082       .  S
C1370      C1371   1.414       .  A
C1370      C1761   1.501       .  S
C1371      H1374   1.083       .  S
C1375      C1376   1.413       .  A
C1375      C1380   1.417       .  A
C1375      C1516   1.479       .  S
C1376      C1377   1.411       .  A
C1377      C1378   1.404       .  A
C1377      C1752   1.507       .  S
C1378      C1379   1.389       .  A
C1378      H1382   1.084       .  S
C1379      C1380   1.399       .  A
C1379      C1737   1.485       .  S
C1380      H1383   1.083       .  S
C1384      C1385   1.425       .  A
C1384      C1389   1.411       .  A
C1384      C1425   1.489       .  S
C1385      C1386   1.413       .  A
C1385      H1390   1.081       .  S
C1386      C1387   1.393       .  A
C1386      C1725   1.499       .  S
C1387      C1388   1.390       .  A
C1387      H1391   1.085       .  S
C1388      C1389   1.398       .  A
C1388      C1713   1.471       .  S
C1389      H1392   1.083       .  S
C1393      C1394   1.421       .  A
C1393      C1398   1.415       .  A
C1393      C1513   1.484       .  S
C1394      C1395   1.412       .  A
C1395      C1396   1.394       .  A
C1395      C1701   1.490       .  S
C1396      C1397   1.389       .  A
C1396      H1400   1.085       .  S
C1397      C1398   1.391       .  A
C1397      C1689   1.479       .  S
C1402      C1403   1.377       .  D
C1402      C1728   1.511       .  S
C1403      C1797   1.508       .  S
C1404      C1405   1.421       .  A
C1404      C1409   1.420       .  A
C1404      C1510   1.495       .  S
C1405      C1406   1.407       .  A
C1406      C1407   1.396       .  A
C1406      C1677   1.506       .  S
C1407      C1408   1.394       .  A
C1407      H1411   1.082       .  S
C1408      C1409   1.411       .  A
C1408      C1665   1.495       .  S
C1409      H1412   1.082       .  S
C1413      C1414   1.380       .  D
C1413      C1788   1.521   1_455  S
C1414      C1776   1.497   1_455  S
C1415      C1416   1.376       .  D
C1415      C1668   1.501       .  S
C1415      C1716   1.505       .  S
C1416      C1740   1.513       .  S
C1416      C1764   1.507       .  S
O1417      C1425   1.262       .  A
O1418      C1419   1.262       .  A
C1419      O1420   1.261       .  A
O1420     Cr1436   1.997       .  S
O1421      C1422   1.266       .  A
C1422      O1423   1.265       .  A
O1424      C1425   1.266       .  A
O1424     Cr1437   1.995       .  S
O1426      C1434   1.260       .  A
O1427      C1428   1.263       .  A
C1428      C1488   1.476       .  S
C1428      O1429   1.264       .  A
O1429     Cr1436   1.989       .  S
O1430      C1431   1.263       .  A
C1431      C1439   1.488       .  S
C1431      O1432   1.266       .  A
O1433      C1434   1.266       .  A
O1433     Cr1437   2.002       .  S
C1434      C1457   1.482       .  S
C1439      C1440   1.414       .  A
C1439      C1444   1.423       .  A
C1440      C1441   1.394       .  A
C1440      H1445   1.084       .  S
C1441      C1442   1.389       .  A
C1441      C1653   1.479       .  S
C1442      C1443   1.399       .  A
C1442      H1446   1.084       .  S
C1443      C1444   1.420       .  A
C1443      C1641   1.510       .  S
C1444      H1447   1.080       .  S
C1448      C1449   1.415       .  A
C1448      C1453   1.419       .  A
C1448      C1507   1.483       .  S
C1449      C1450   1.397       .  A
C1450      C1451   1.388       .  A
C1450      C1632   1.477       .  S
C1451      C1452   1.396       .  A
C1451      H1455   1.085       .  S
C1452      C1453   1.414       .  A
C1452      C1620   1.499       .  S
C1453      H1456   1.081       .  S
C1457      C1458   1.408       .  A
C1457      C1462   1.421       .  A
C1458      C1459   1.396       .  A
C1458      H1463   1.084       .  S
C1459      C1460   1.388       .  A
C1459      C1605   1.475       .  S
C1460      C1461   1.396       .  A
C1460      H1464   1.082       .  S
C1461      C1462   1.416       .  A
C1461      C1593   1.499       .  S
C1462      H1465   1.083       .  S
C1466      C1467   1.411       .  A
C1466      C1471   1.424       .  A
C1466      C1504   1.491       .  S
C1467      C1468   1.393       .  A
C1468      C1469   1.386       .  A
C1468      C1572   1.473       .  S
C1469      C1470   1.398       .  A
C1469      H1473   1.084       .  S
C1470      C1471   1.423       .  A
C1470      C1584   1.508       .  S
C1475      C1476   1.379       .  D
C1475      C1644   1.523       .  S
C1476      C1545   1.497       .  S
C1477      C1478   1.381       .  D
C1477      C1656   1.504       .  S
C1478      C1596   1.517       .  S
C1479      C1480   1.417       .  A
C1479      C1484   1.411       .  A
C1479      C1501   1.480       .  S
C1480      C1481   1.414       .  A
C1481      C1482   1.395       .  A
C1481      C1560   1.495       .  S
C1482      C1483   1.390       .  A
C1482      H1486   1.083       .  S
C1483      C1484   1.396       .  A
C1483      C1533   1.475       .  S
C1484      H1487   1.084       .  S
C1488      C1489   1.415       .  A
C1488      C1493   1.414       .  A
C1489      C1490   1.408       .  A
C1489      H1494   1.083       .  S
C1490      C1491   1.395       .  A
C1490      C1524   1.490       .  S
C1491      C1492   1.389       .  A
C1491      H1495   1.083       .  S
C1492      C1493   1.399       .  A
C1492      C1548   1.479       .  S
C1493      H1496   1.083       .  S
C1497      C1498   1.371       .  D
C1497      C1521   1.510       .  S
C1497      C1617   1.508       .  S
C1498      C1536   1.491       .  S
C1498      C1608   1.486       .  S
O1499     Cr1517   1.994       .  S
O1500     Cr1517   1.990       .  S
C1501      O1502   1.264       .  A
O1502     Cr1518   1.993       .  S
O1503     Cr1518   2.001       .  S
O1505     Cr1519   1.995   1_455  S
O1506      C1507   1.265       .  A
O1506     Cr1519   1.995       .  S
O1508     Cr1517   1.991       .  S
O1509     Cr1517   1.997   1_455  S
C1510      O1511   1.263       .  A
O1511     Cr1518   2.000       .  S
O1512     Cr1518   1.985       .  S
O1514     Cr1519   1.994       .  S
O1515      C1516   1.259       .  A
O1515     Cr1519   1.990       .  S
Cr1517     O1520   1.790       .  S
C1521      C1522   1.407       .  A
C1521      C1526   1.418       .  A
C1522      C1523   1.393       .  A
C1522      H1531   1.079       .  S
C1523      C1524   1.414       .  A
C1523      S1527   1.806       .  S
C1524      C1525   1.402       .  A
C1525      C1526   1.406       .  A
C1525      H1532   1.082       .  S
C1526      S1528   1.803       .  S
S1527      H1530   1.408       .  S
S1528      H1529   1.407       .  S
C1533      C1534   1.405       .  A
C1533      C1538   1.409       .  A
C1534      C1535   1.412       .  A
C1534      H1543   1.083       .  S
C1535      C1536   1.419       .  A
C1535      S1539   1.804       .  S
C1536      C1537   1.402       .  A
C1537      C1538   1.378       .  A
C1537      H1544   1.083       .  S
C1538      S1540   1.807       .  S
S1539      H1542   1.407       .  S
S1540      H1541   1.407       .  S
C1545      C1546   1.413       .  A
C1545      C1550   1.414       .  A
C1546      C1547   1.408       .  A
C1546      H1555   1.082       .  S
C1547      C1548   1.413       .  A
C1547      S1551   1.802       .  S
C1548      C1549   1.400       .  A
C1549      C1550   1.380       .  A
C1549      H1556   1.085       .  S
C1550      S1552   1.801       .  S
S1551      H1554   1.405       .  S
S1552      H1553   1.400       .  S
C1557      C1558   1.405       .  A
C1558      C1559   1.398       .  A
C1558      H1567   1.080       .  S
C1559      C1560   1.419       .  A
C1559      S1563   1.806       .  S
C1561      C1562   1.402       .  A
C1561      H1568   1.083       .  S
C1562      S1564   1.795       .  S
S1563      H1566   1.407       .  S
S1564      H1565   1.402       .  S
C1569      C1570   1.406       .  A
C1570      C1571   1.379       .  A
C1570      H1579   1.084       .  S
C1571      C1572   1.406       .  A
C1571      S1575   1.807       .  S
C1573      C1574   1.408   1_455  A
C1573      H1580   1.084   1_455  S
C1574      S1576   1.803       .  S
S1575      H1578   1.407       .  S
S1576      H1577   1.392       .  S
C1581      C1586   1.422       .  A
C1582      C1583   1.405       .  A
C1582      H1591   1.083       .  S
C1583      S1587   1.795       .  S
C1584      C1585   1.413       .  A
C1585      C1586   1.405       .  A
C1585      H1592   1.085       .  S
C1586      S1588   1.807       .  S
S1587      H1590   1.407       .  S
S1588      H1589   1.400       .  S
C1593      C1594   1.402       .  A
C1593      C1598   1.419       .  A
C1594      C1595   1.404       .  A
C1595      C1596   1.421       .  A
C1596      C1597   1.407       .  A
C1597      C1598   1.399       .  A
C1597      H1604   1.079       .  S
C1598      S1600   1.806       .  S
S1599      H1602   1.404       .  S
S1600      H1601   1.408       .  S
C1605      C1606   1.404       .  A
C1605      C1610   1.414       .  A
C1606      C1607   1.405       .  A
C1606      H1615   1.084       .  S
C1607      C1608   1.421       .  A
C1607      S1611   1.805       .  S
C1608      C1609   1.397       .  A
C1609      C1610   1.378       .  A
C1609      H1616   1.084       .  S
C1610      S1612   1.807       .  S
S1611      H1614   1.402       .  S
S1612      H1613   1.407       .  S
C1617      C1618   1.411       .  A
C1617      C1622   1.419       .  A
C1618      C1619   1.401       .  A
C1618      H1627   1.084       .  S
C1619      C1620   1.412       .  A
C1619      S1623   1.797       .  S
C1620      C1621   1.412       .  A
C1621      C1622   1.402       .  A
C1621      H1628   1.085       .  S
C1622      S1624   1.807       .  S
S1623      H1626   1.406       .  S
S1624      H1625   1.403       .  S
C1629      C1630   1.406       .  A
C1629      C1634   1.421   1_565  A
C1630      C1631   1.380       .  A
C1631      C1632   1.407       .  A
C1631      S1635   1.808       .  S
C1632      C1633   1.404       .  A
C1633      C1634   1.414   1_565  A
C1633      H1640   1.083   1_565  S
C1634      S1636   1.803       .  S
S1635      H1638   1.407       .  S
S1636      H1637   1.407       .  S
C1641      C1642   1.411       .  A
C1641      C1646   1.411       .  A
C1642      C1643   1.403       .  A
C1642      H1651   1.085       .  S
C1643      C1644   1.424       .  A
C1643      S1647   1.804       .  S
C1644      C1645   1.415   1_655  A
C1645      C1646   1.407   1_455  A
S1647      H1650   1.395       .  S
S1648      H1649   1.407       .  S
C1653      C1654   1.404       .  A
C1653      C1658   1.405       .  A
C1654      C1655   1.415       .  A
C1654      H1663   1.083       .  S
C1655      C1656   1.424       .  A
C1655      S1659   1.804       .  S
C1656      C1657   1.405       .  A
C1657      C1658   1.381       .  A
C1657      H1664   1.084       .  S
C1658      S1660   1.805       .  S
S1659      H1662   1.407       .  S
S1660      H1661   1.407       .  S
C1665      C1666   1.407       .  A
C1665      C1670   1.416       .  A
C1666      C1667   1.382       .  A
C1666      H1675   1.083       .  S
C1667      C1668   1.405       .  A
C1667      S1671   1.797       .  S
C1668      C1669   1.413       .  A
C1669      C1670   1.414       .  A
C1669      H1676   1.083       .  S
C1670      S1672   1.800       .  S
S1671      H1674   1.406       .  S
S1672      H1673   1.406       .  S
C1677      C1678   1.409       .  A
C1677      C1682   1.415       .  A
C1678      C1679   1.401       .  A
C1678      H1687   1.084       .  S
C1679      C1680   1.423       .  A
C1679      S1683   1.804       .  S
C1680      C1681   1.411       .  A
C1681      C1682   1.402       .  A
C1681      H1688   1.084       .  S
C1682      S1684   1.795       .  S
S1683      H1686   1.397       .  S
S1684      H1685   1.407       .  S
C1689      C1694   1.403       .  A
C1690      C1691   1.405       .  A
C1690      H1699   1.083       .  S
C1691      S1695   1.796       .  S
C1692      C1693   1.414   1_545  A
C1693      C1694   1.388       .  A
C1693      H1700   1.063       .  S
C1694      S1696   1.808       .  S
S1695      H1698   1.404       .  S
S1696      H1697   1.408       .  S
C1701      C1702   1.403       .  A
C1701      C1706   1.415       .  A
C1702      C1703   1.384       .  A
C1702      H1711   1.085       .  S
C1703      C1704   1.417       .  A
C1703      S1707   1.805       .  S
C1704      C1705   1.414       .  A
C1705      C1706   1.413       .  A
C1706      S1708   1.801       .  S
S1707      H1710   1.401       .  S
S1708      H1709   1.405       .  S
C1713      C1714   1.401       .  A
C1713      C1718   1.404   1_556  A
C1714      C1715   1.408       .  A
C1714      H1723   1.084       .  S
C1715      C1716   1.430   1_556  A
C1715      S1719   1.804       .  S
C1716      C1717   1.407       .  A
C1717      C1718   1.379       .  A
C1717      H1724   1.083       .  S
C1718      S1720   1.807       .  S
S1719      H1722   1.394       .  S
S1720      H1721   1.406       .  S
C1725      C1726   1.411       .  A
C1725      C1730   1.411       .  A
C1726      C1727   1.404       .  A
C1726      H1735   1.085       .  S
C1727      C1728   1.421   1_556  A
C1727      S1731   1.805       .  S
C1728      C1729   1.412       .  A
C1729      C1730   1.401   1_554  A
S1731      H1734   1.400   1_556  S
C1737      C1738   1.398       .  A
C1737      C1742   1.414       .  A
C1738      C1739   1.409       .  A
C1738      H1747   1.082       .  S
C1739      C1740   1.422       .  A
C1739      S1743   1.803       .  S
C1740      C1741   1.406       .  A
C1741      C1742   1.393       .  A
C1741      H1748   1.079       .  S
C1742      S1744   1.805       .  S
S1743      H1746   1.407       .  S
S1744      H1745   1.407       .  S
C1749      C1754   1.402       .  A
C1750      C1751   1.405       .  A
C1750      H1759   1.084       .  S
C1751      S1755   1.796       .  S
C1752      C1753   1.414       .  A
C1753      C1754   1.381       .  A
C1753      H1760   1.076       .  S
C1754      S1756   1.806       .  S
S1755      H1758   1.407       .  S
S1756      H1757   1.403       .  S
C1761      C1762   1.404       .  A
C1761      C1766   1.420       .  A
C1762      C1763   1.396       .  A
C1762      H1771   1.082       .  S
C1763      C1764   1.420   1_556  A
C1763      S1767   1.805   1_556  S
C1764      C1765   1.407   1_554  A
C1765      C1766   1.407       .  A
C1765      H1772   1.081       .  S
C1766      S1768   1.810       .  S
S1767      H1770   1.403       .  S
S1768      H1769   1.407       .  S
C1773      C1774   1.403       .  A
C1773      C1778   1.406       .  A
C1774      C1775   1.411       .  A
C1774      H1783   1.083       .  S
C1775      C1776   1.423   1_556  A
C1775      S1779   1.806   1_655  S
C1776      C1777   1.403       .  A
C1777      C1778   1.375   1_554  A
C1777      H1784   1.084       .  S
C1778      S1780   1.807   1_556  S
S1779      H1782   1.407       .  S
S1780      H1781   1.405   1_554  S
C1785      C1786   1.403       .  A
C1785      C1790   1.419       .  A
C1786      C1787   1.403   1_655  A
C1787      C1788   1.420   1_456  A
C1788      C1789   1.409   1_554  A
C1789      C1790   1.401       .  A
C1789      H1796   1.080       .  S
C1790      S1792   1.806       .  S
S1791      H1794   1.405       .  S
S1792      H1793   1.407       .  S
C1797      C1798   1.405       .  A
C1797      C1802   1.427   1_554  A
C1798      C1799   1.376       .  A
C1798      H1807   1.076       .  S
C1799      C1800   1.407   1_554  A
C1799      S1803   1.810       .  S
C1800      C1801   1.406       .  A
C1801      C1802   1.416       .  A
C1801      H1808   1.084       .  S
S1803      H1806   1.407       .  S
S1804      H1805   1.390       .  S
