geometry optimzed in LAMMPS
_audit_creation_date              2020-11-30 
_audit_creation_method            'lammps2cif' 
_symmetry_space_group_name_H-M    'P1' 
_symmetry_Int_Tables_number       1 
_symmetry_cell_setting            triclinic 
loop_ 
_symmetry_equiv_pos_as_xyz 
  x,y,z 
_cell_length_a                    104.71379011 
_cell_length_b                    105.1472371815078 
_cell_length_c                    47.75852247840231 
_cell_angle_alpha                 90.19690657095869 
_cell_angle_beta                  89.98128432293292 
_cell_angle_gamma                 119.99192593007652 
loop_ 
_atom_site_label 
_atom_site_type_symbol 
_atom_site_fract_x 
_atom_site_fract_y 
_atom_site_fract_z 
_atom_site_charge 
In1        In  0.07394037  0.46300539  0.19569430     1.36900
C2          C  0.04570815  0.45130928  0.21000496     0.77400
O3          O  0.07326173  0.44521302  0.22269728    -0.61100
O4          O  0.09133974  0.46676977  0.22761743    -0.52000
C5          C  0.08365291  0.45564054  0.14991367     0.70000
O6          O  0.07082771  0.44784175  0.15949118    -0.46800
C7          C  0.07957686  0.49066875  0.19292918     0.74700
O8          O  0.04968145  0.45072728  0.18528926    -0.58700
O9          O  0.08533378  0.48639262  0.21105131    -0.48800
O10         O  0.05619694  0.45798524  0.22706952    -0.55100
C11         C  0.08505895  0.45358596  0.23558049     0.84900
O12         O  0.09133430  0.46743300  0.16324583    -0.57000
O13         O  0.07146723  0.48092677  0.17547717    -0.60300
In14       In  0.91332753  0.38447957  0.29835079     1.36900
C15         C  0.94091808  0.39869715  0.27884921     0.77400
O16         O  0.90725177  0.36302246  0.27750814    -0.61100
O17         O  0.89834544  0.37562736  0.26093203    -0.52000
C18         C  0.90536920  0.36706908  0.34303363     0.70000
O19         O  0.91787087  0.37236106  0.33175028    -0.46800
C20         C  0.90793252  0.40645417  0.30822283     0.74700
O21         O  0.93797480  0.39630807  0.30453086    -0.58700
O22         O  0.90059270  0.39624285  0.29102156    -0.48800
O23         O  0.92976023  0.39398374  0.26328518    -0.55100
C24         C  0.89933052  0.36417338  0.25896516     0.84900
O25         O  0.89704775  0.37113535  0.33200870    -0.57000
O26         O  0.91762828  0.40507304  0.32127503    -0.60300
In27       In  0.05134405  0.24737951  0.38250572     1.36900
C28         C  0.06754972  0.27587124  0.39475009     0.77400
O29         O  0.03512823  0.24770931  0.41236828    -0.61100
O30         O  0.03844182  0.22940833  0.41393148    -0.52000
C31         C  0.03290761  0.23823136  0.33864374     0.70000
O32         O  0.03805992  0.25074841  0.34966044    -0.46800
C33         C  0.07383396  0.24246905  0.37707496     0.74700
O34         O  0.06381301  0.27116598  0.37005884    -0.58700
O35         O  0.06563884  0.23863556  0.39835339    -0.48800
O36         O  0.06314002  0.26596348  0.41304031    -0.55100
C37         C  0.03193888  0.23575712  0.42407435     0.84900
O38         O  0.03734087  0.23029280  0.34989987    -0.57000
O39         O  0.07006275  0.24817706  0.35800387    -0.60300
In40       In  0.13164817  0.41298005  0.44441222     1.36900
C41         C  0.11938533  0.38420401  0.43613834     0.77400
O42         O  0.11470543  0.41012080  0.41274030    -0.61100
O43         O  0.13526338  0.42983434  0.41106146    -0.52000
C44         C  0.12078811  0.42146375  0.98774753     0.70000
O45         O  0.13354305  0.42859703  0.97743996    -0.46800
C46         C  0.15929234  0.41814590  0.44977888     0.74700
O47         O  0.11932573  0.38967833  0.45967777    -0.58700
O48         O  0.15521399  0.42312925  0.42984266    -0.48800
O49         O  0.12585209  0.39350347  0.41702215    -0.55100
C50         C  0.12258600  0.42214954  0.40049390     0.84900
O51         O  0.11526177  0.41083917  0.47705610    -0.57000
O52         O  0.14938149  0.41108619  0.46761077    -0.60300
In53       In  0.94188769  0.19519789  0.13437151     1.36900
C54         C  0.92721814  0.20895576  0.12022380     0.77400
O55         O  0.95778716  0.21121057  0.10348812    -0.61100
O56         O  0.95515385  0.18992142  0.10371729    -0.52000
C57         C  0.96001064  0.20361857  0.17880908     0.70000
O58         O  0.95447908  0.21094061  0.16927099    -0.46800
C59         C  0.91908992  0.16801425  0.14155394     0.74700
O60         O  0.93353798  0.21072923  0.14358465    -0.58700
O61         O  0.92771990  0.17172434  0.12094846    -0.48800
O62         O  0.92799466  0.19973450  0.10439456    -0.55100
C63         C  0.96130436  0.20247287  0.09267547     0.84900
O64         O  0.95602069  0.19172498  0.16594743    -0.57000
O65         O  0.92230114  0.17819847  0.15903956    -0.60300
In66       In  0.86222455  0.27875153  0.05011930     1.36900
C67         C  0.87803964  0.26577127  0.06000367     0.77400
O68         O  0.86532257  0.28295533  0.09630641    -0.61100
O69         O  0.86243352  0.29802263  0.07159261    -0.52000
C70         C  0.87175571  0.29629721  0.50463583     0.70000
O71         O  0.85935702  0.29155018  0.01540507    -0.46800
C72         C  0.83462321  0.25644281  0.04537413     0.74700
O73         O  0.88170794  0.27846615  0.06880845    -0.58700
O74         O  0.83879307  0.26535826  0.06560971    -0.48800
O75         O  0.86671697  0.26004476  0.04466127    -0.55100
C76         C  0.86483266  0.29467536  0.09560570     0.84900
O77         O  0.87990318  0.29243514  0.01851050    -0.57000
O78         O  0.84439383  0.25937407  0.02715583    -0.60300
In79       In  0.86041724  0.58298989  0.04155097     1.36900
C80         C  0.87288870  0.61150986  0.05304295     0.77400
O81         O  0.84220170  0.58357105  0.01784548    -0.61100
O82         O  0.83766552  0.57476825  0.05882454    -0.52000
C83         C  0.86780163  0.57313539  0.99628730     0.70000
O84         O  0.87588068  0.58575368  0.00651033    -0.46800
C85         C  0.86938868  0.57177667  0.08182838     0.74700
O86         O  0.87227789  0.60665301  0.02859896    -0.58700
O87         O  0.85623948  0.56531446  0.07307275    -0.48800
O88         O  0.86707809  0.60174823  0.07155626    -0.55100
C89         C  0.83302198  0.57829116  0.03753368     0.84900
O90         O  0.85589449  0.56548300  0.00935841    -0.57000
O91         O  0.87782296  0.58361786  0.06940253    -0.60300
In92       In  0.94598941  0.74761623  0.11057770     1.36900
C93         C  0.92915664  0.71918672  0.09914577     0.77400
O94         O  0.92897294  0.74748455  0.13969068    -0.61100
O95         O  0.93080222  0.75611855  0.09903216    -0.52000
C96         C  0.96608455  0.75737021  0.15154226     0.70000
O97         O  0.95886990  0.74405748  0.14429933    -0.46800
C98         C  0.96397308  0.75816680  0.06659553     0.74700
O99         O  0.93622223  0.72378663  0.12184125    -0.58700
O100        O  0.95931405  0.74548423  0.07632051    -0.48800
O101        O  0.93071572  0.72916304  0.08253395    -0.55100
C102        C  0.92397155  0.75272777  0.12198491     0.84900
O103        O  0.96292867  0.76567897  0.13788835    -0.57000
O104        O  0.95943778  0.76565016  0.07948382    -0.60300
In105      In  0.13358993  0.71646563  0.46025052     1.36900
C106        C  0.12038371  0.73119036  0.44396897     0.77400
O107        O  0.15033023  0.73730653  0.48161824    -0.61100
O108        O  0.15747102  0.72954551  0.44751670    -0.52000
C109        C  0.12683546  0.69989249  0.00658712     0.70000
O110        O  0.11945042  0.70618303  0.49833817    -0.46800
C111        C  0.12452459  0.69592812  0.42040451     0.74700
O112        O  0.11805683  0.72491274  0.46743220    -0.58700
O113        O  0.13754697  0.70235804  0.42970432    -0.48800
O114        O  0.12965881  0.73005409  0.42884378    -0.55100
C115        C  0.16080700  0.73945878  0.46566035     0.84900
O116        O  0.13745483  0.70276075  0.49187981    -0.57000
O117        O  0.11620170  0.69979984  0.43195623    -0.60300
In118      In  0.05326337  0.79712033  0.36108987     1.36900
C119        C  0.06720462  0.78324387  0.37887449     0.77400
O120        O  0.07465171  0.81287105  0.34008031    -0.61100
O121        O  0.06671762  0.82105183  0.37219278    -0.52000
C122        C  0.03651708  0.79010373  0.31491794     0.70000
O123        O  0.03998025  0.78149999  0.32647406    -0.46800
C124        C  0.03348046  0.79070530  0.40157810     0.74700
O125        O  0.06490432  0.78428378  0.35328860    -0.58700
O126        O  0.04324920  0.80374376  0.39607095    -0.48800
O127        O  0.06235257  0.78926712  0.39517172    -0.55100
C128        C  0.07684775  0.82373231  0.35487414     0.84900
O129        O  0.04171235  0.80241009  0.32689895    -0.57000
O130        O  0.03348743  0.78116850  0.38548607    -0.60300
In131      In  0.91298226  0.52861343  0.29040362     1.36900
C132        C  0.94144879  0.54059482  0.27680790     0.77400
O133        O  0.91452991  0.51200054  0.31725618    -0.61100
O134        O  0.90267980  0.50456566  0.27914771    -0.52000
C135        C  0.90255049  0.53741646  0.33275525     0.70000
O136        O  0.91574905  0.54451997  0.32464185    -0.46800
C137        C  0.90252213  0.53713598  0.24811161     0.74700
O138        O  0.93722581  0.54164765  0.30103176    -0.58700
O139        O  0.89629898  0.52392466  0.25603244    -0.48800
O140        O  0.93108885  0.53312394  0.25989938    -0.55100
C141        C  0.90740842  0.50136701  0.30075674     0.84900
O142        O  0.89471814  0.52564389  0.31944137    -0.57000
O143        O  0.91372939  0.54577378  0.26221190    -0.60300
In144      In  0.07768670  0.60990587  0.21084112     1.36900
C145        C  0.04894642  0.59465770  0.22305150     0.77400
O146        O  0.07400530  0.58984964  0.18741499    -0.61100
O147        O  0.08819028  0.59648961  0.22269848    -0.52000
C148        C  0.08905154  0.62900323  0.16832222     0.70000
O149        O  0.07665228  0.62515322  0.17898983    -0.46800
C150        C  0.08903305  0.62790612  0.25432626     0.74700
O151        O  0.05367646  0.59807294  0.19831315    -0.58700
O152        O  0.09445171  0.62029708  0.24541470    -0.48800
O153        O  0.05893262  0.59885855  0.24134272    -0.55100
C154        C  0.08207744  0.58726358  0.20320580     0.84900
O155        O  0.09560603  0.62296081  0.17922312    -0.57000
O156        O  0.07813192  0.62648329  0.24054025    -0.60300
In157      In  0.60767174  0.52641223  0.29575056     1.36900
C158        C  0.59684283  0.54423919  0.28689260     0.77400
O159        O  0.62666809  0.52550536  0.27487338    -0.61100
O160        O  0.61157558  0.52840584  0.24985672    -0.52000
C161        C  0.62556513  0.53559131  0.34018929     0.70000
O162        O  0.62383980  0.54416802  0.32434114    -0.46800
C163        C  0.58413939  0.49961848  0.30024506     0.74700
O164        O  0.59137268  0.53397064  0.30448126    -0.58700
O165        O  0.59317887  0.50319892  0.28032770    -0.48800
O166        O  0.60814815  0.54569775  0.27469483    -0.55100
C167        C  0.62326249  0.52775217  0.25073401     0.84900
O168        O  0.61823349  0.52227964  0.33310088    -0.57000
O169        O  0.58731673  0.50966145  0.31792741    -0.60300
In170      In  0.53073561  0.61138863  0.20934257     1.36900
C171        C  0.54649547  0.59967679  0.22831212     0.77400
O172        O  0.54478085  0.63342840  0.22954681    -0.61100
O173        O  0.52417675  0.61890710  0.24808518    -0.52000
C174        C  0.53756130  0.62789188  0.16343421     0.70000
O175        O  0.54616720  0.62426352  0.17459936    -0.46800
C176        C  0.50424303  0.58775603  0.20036333     0.74700
O177        O  0.54711084  0.60368218  0.20326201    -0.58700
O178        O  0.50617451  0.59861051  0.21489213    -0.48800
O179        O  0.53774259  0.60157375  0.24346108    -0.55100
C180        C  0.53586767  0.63119311  0.24915603     0.84900
O181        O  0.52518597  0.62266295  0.17530233    -0.57000
O182        O  0.51587256  0.58920725  0.18946386    -0.60300
In183      In  0.71260710  0.57969822  0.04883721     1.36900
C184        C  0.72659987  0.60778452  0.06484466     0.77400
O185        O  0.69235824  0.57479976  0.07305828    -0.61100
O186        O  0.70262849  0.56219892  0.08180902    -0.52000
C187        C  0.69505626  0.57036756  0.00430717     0.70000
O188        O  0.70070478  0.58324811  0.01391402    -0.46800
C189        C  0.73626870  0.57678086  0.04205455     0.74700
O190        O  0.72484872  0.60398125  0.03946535    -0.58700
O191        O  0.73099336  0.58075373  0.02249495    -0.48800
O192        O  0.72087017  0.59724730  0.08175024    -0.55100
C193        C  0.69234529  0.56476133  0.08750266     0.84900
O194        O  0.69861260  0.56215815  0.01731335    -0.57000
O195        O  0.72896063  0.57358277  0.06443105    -0.60300
In196      In  0.79832109  0.74235775  0.13359780     1.36900
C197        C  0.78480590  0.71366349  0.12396037     0.77400
O198        O  0.78172868  0.74137374  0.10292712    -0.61100
O199        O  0.80312527  0.76008206  0.10205034    -0.52000
C200        C  0.79079828  0.75320996  0.17688240     0.70000
O201        O  0.78187583  0.74143997  0.16469651    -0.46800
C202        C  0.82602220  0.74784984  0.13672416     0.74700
O203        O  0.78517233  0.71879408  0.14808141    -0.58700
O204        O  0.82102068  0.75140766  0.11603755    -0.48800
O205        O  0.79186579  0.72320930  0.10561770    -0.55100
C206        C  0.79038757  0.75341252  0.09143387     0.84900
O207        O  0.80368329  0.75940423  0.16710393    -0.57000
O208        O  0.81684174  0.74162112  0.15621643    -0.60300
In209      In  0.74652122  0.79722081  0.38328308     1.36900
C210        C  0.71806239  0.78236710  0.39672139     0.77400
O211        O  0.76410907  0.80216662  0.41580413    -0.61100
O212        O  0.74619503  0.78042983  0.41221815    -0.52000
C213        C  0.75703777  0.79084644  0.33783046     0.70000
O214        O  0.74354764  0.78656430  0.34121184    -0.46800
C215        C  0.75077022  0.82428638  0.37673510     0.74700
O216        O  0.72355445  0.77819005  0.37778875    -0.58700
O217        O  0.75389439  0.81999672  0.39895583    -0.48800
O218        O  0.72711739  0.79429257  0.40836757    -0.55100
C219        C  0.75789304  0.78917654  0.42489325     0.84900
O220        O  0.76525344  0.79882480  0.35740807    -0.57000
O221        O  0.74589806  0.81483401  0.35737761    -0.60300
In222      In  0.58176965  0.71789576  0.45583191     1.36900
C223        C  0.61070053  0.72947326  0.44830065     0.77400
O224        O  0.57935180  0.71450260  0.40913585    -0.61100
O225        O  0.56475865  0.69705105  0.43551439    -0.52000
C226        C  0.57136850  0.69869394  0.00190288     0.70000
O227        O  0.58431901  0.70414798  0.99264227    -0.46800
C228        C  0.57604989  0.73988789  0.45906381     0.74700
O229        O  0.60129466  0.71719032  0.43841284    -0.58700
O230        O  0.57259323  0.73140775  0.43826831    -0.48800
O231        O  0.60532611  0.73561614  0.46300780    -0.55100
C232        C  0.56886903  0.70143878  0.41084828     0.84900
O233        O  0.56427946  0.70412254  0.48735103    -0.57000
O234        O  0.58194916  0.73676229  0.47882309    -0.60300
In235      In  0.46098491  0.38279104  0.30952258     1.36900
C236        C  0.44943841  0.39902918  0.29308325     0.77400
O237        O  0.47917613  0.40264042  0.33130403    -0.61100
O238        O  0.48414208  0.39490839  0.29407755    -0.52000
C239        C  0.45365867  0.36654959  0.35572984     0.70000
O240        O  0.44535952  0.37069460  0.34498208    -0.46800
C241        C  0.45165168  0.36181704  0.27061487     0.74700
O242        O  0.44808798  0.39424668  0.31777731    -0.58700
O243        O  0.46467621  0.36809505  0.27990076    -0.48800
O244        O  0.45697928  0.39576268  0.27717187    -0.55100
C245        C  0.48874668  0.40446224  0.31325034     0.84900
O246        O  0.46575135  0.37107698  0.34323234    -0.57000
O247        O  0.44345609  0.36588692  0.28207943    -0.60300
In248      In  0.38428382  0.46500937  0.20003750     1.36900
C249        C  0.39706118  0.45041572  0.21996026     0.77400
O250        O  0.40663708  0.48076871  0.18197424    -0.61100
O251        O  0.39801309  0.48861529  0.21338166    -0.52000
C252        C  0.36927080  0.45851279  0.15169957     0.70000
O253        O  0.37171867  0.44954883  0.16469399    -0.46800
C254        C  0.36245981  0.45875753  0.23633543     0.74700
O255        O  0.39454010  0.45075344  0.19422031    -0.58700
O256        O  0.37178460  0.47177159  0.22969409    -0.48800
O257        O  0.39297191  0.45747829  0.23534169    -0.55100
C258        C  0.40861920  0.49143161  0.19719002     0.84900
O259        O  0.37494551  0.47102830  0.16296800    -0.57000
O260        O  0.36414989  0.44912716  0.22383066    -0.60300
In261      In  0.19768204  0.24986213  0.38751219     1.36900
C262        C  0.21134861  0.27840267  0.40019858     0.77400
O263        O  0.17972500  0.24922330  0.36052784    -0.61100
O264        O  0.17453487  0.24101278  0.40194835    -0.52000
C265        C  0.20557089  0.23963605  0.34326185     0.70000
O266        O  0.20928323  0.25297798  0.34600282    -0.46800
C267        C  0.20393894  0.23885119  0.43215319     0.74700
O268        O  0.21730682  0.27264895  0.38590750    -0.58700
O269        O  0.19230716  0.23160443  0.41806470    -0.48800
O270        O  0.19821972  0.26959847  0.40724772    -0.55100
C271        C  0.17007526  0.24369811  0.37946122     0.84900
O272        O  0.19780414  0.23160920  0.36304016    -0.57000
O273        O  0.21242679  0.25157085  0.42303106    -0.60300
In274      In  0.27944838  0.41511091  0.45000227     1.36900
C275        C  0.26658370  0.38589709  0.44784309     0.77400
O276        O  0.26032492  0.41483137  0.47251780    -0.61100
O277        O  0.26391263  0.42162950  0.43025228    -0.52000
C278        C  0.29661973  0.42430499  0.99166493     0.70000
O279        O  0.29146379  0.41153918  0.98192308    -0.46800
C280        C  0.29470967  0.42656773  0.40271679     0.74700
O281        O  0.26078487  0.39248140  0.45975791    -0.58700
O282        O  0.28554819  0.41313505  0.40592819    -0.48800
O283        O  0.27914915  0.39429389  0.43761165    -0.55100
C284        C  0.25595223  0.41895945  0.45170405     0.84900
O285        O  0.29309405  0.43226031  0.48281257    -0.57000
O286        O  0.29581191  0.43445265  0.42361341    -0.60300
In287      In  0.41100988  0.27589024  0.06028310     1.36900
C288        C  0.38236584  0.25836820  0.06984794     0.77400
O289        O  0.41190407  0.25799880  0.03561835    -0.61100
O290        O  0.42089511  0.26264095  0.07653168    -0.52000
C291        C  0.42136107  0.29474491  0.01761405     0.70000
O292        O  0.40816148  0.28862648  0.02569993    -0.46800
C293        C  0.42016040  0.29495028  0.10274970     0.74700
O294        O  0.38728698  0.26405888  0.04622593    -0.58700
O295        O  0.42708303  0.28864131  0.09471644    -0.48800
O296        O  0.39212811  0.26160607  0.08828134    -0.55100
C297        C  0.41783497  0.25464584  0.05503667     0.84900
O298        O  0.42930090  0.29097563  0.03105286    -0.57000
O299        O  0.40877334  0.29172368  0.08861611    -0.60300
In300      In  0.24708603  0.19254242  0.13512875     1.36900
C301        C  0.27513948  0.20311636  0.12065175     0.77400
O302        O  0.24879152  0.17463912  0.15794562    -0.61100
O303        O  0.23568290  0.16898998  0.12124586    -0.52000
C304        C  0.23832554  0.20211991  0.17933304     0.70000
O305        O  0.25018400  0.21012338  0.16643641    -0.46800
C306        C  0.23569248  0.20077270  0.09379209     0.74700
O307        O  0.27132669  0.20377846  0.14548359    -0.58700
O308        O  0.22872319  0.18821793  0.10484714    -0.48800
O309        O  0.26459694  0.19696558  0.10355819    -0.55100
C310        C  0.24089820  0.16474461  0.14053219     0.84900
O311        O  0.23114664  0.18920103  0.16992815    -0.57000
O312        O  0.24827120  0.20898111  0.10416805    -0.60300
In313      In  0.71749606  0.13225558  0.04543126     1.36900
C314        C  0.72921849  0.11537130  0.05726254     0.77400
O315        O  0.73796912  0.14995281  0.02465200    -0.61100
O316        O  0.72954279  0.15595718  0.05937329    -0.52000
C317        C  0.69891477  0.12396701  0.50064772     0.70000
O318        O  0.70484682  0.11616094  0.01069956    -0.46800
C319        C  0.70088962  0.12889791  0.09005901     0.74700
O320        O  0.73562773  0.12671075  0.04232576    -0.58700
O321        O  0.71455103  0.13355959  0.09170077    -0.48800
O322        O  0.71649513  0.11226317  0.06500151    -0.55100
C323        C  0.73958533  0.15999324  0.04126583     0.84900
O324        O  0.70516848  0.13642299  0.01136950    -0.57000
O325        O  0.69589023  0.12664774  0.06540233    -0.60300
In326      In  0.79723642  0.04824103  0.12801686     1.36900
C327        C  0.78215305  0.06162133  0.11450522     0.77400
O328        O  0.81407016  0.06703661  0.15437488    -0.61100
O329        O  0.82063422  0.06363096  0.11449853    -0.52000
C330        C  0.79021344  0.03167069  0.17396452     0.70000
O331        O  0.78556199  0.04041615  0.16914188    -0.46800
C332        C  0.79039287  0.02897766  0.08585930     0.74700
O333        O  0.77755248  0.05137003  0.13216636    -0.58700
O334        O  0.80276565  0.03489037  0.09793947    -0.48800
O335        O  0.79443370  0.06493280  0.10371993    -0.55100
C336        C  0.82419896  0.07138339  0.13641677     0.84900
O337        O  0.79874484  0.03158658  0.15543237    -0.57000
O338        O  0.78164792  0.03279987  0.09561894    -0.60300
In339      In  0.74662657  0.94243268  0.37891715     1.36900
C340        C  0.71805795  0.92586037  0.39117945     0.77400
O341        O  0.74629205  0.92399386  0.35423565    -0.61100
O342        O  0.75630901  0.92888202  0.39432213    -0.52000
C343        C  0.75558734  0.96087670  0.33539691     0.70000
O344        O  0.74333517  0.95632274  0.34728676    -0.46800
C345        C  0.75802564  0.96164640  0.42092499     0.74700
O346        O  0.72256617  0.93043809  0.36673881    -0.58700
O347        O  0.76478319  0.95571002  0.41016321    -0.48800
O348        O  0.72818668  0.92949698  0.40897485    -0.55100
C349        C  0.75255051  0.92066457  0.37303887     0.84900
O350        O  0.76327394  0.95585184  0.34556117    -0.57000
O351        O  0.74581027  0.95801414  0.40960413    -0.60300
In352      In  0.58127785  0.86237195  0.44682780     1.36900
C353        C  0.60995958  0.87342196  0.43784864     0.77400
O354        O  0.58059171  0.84405937  0.47215307    -0.61100
O355        O  0.57192613  0.83927702  0.43099553    -0.52000
C356        C  0.57159813  0.87145928  0.98710629     0.70000
O357        O  0.58449002  0.87887255  0.97757663    -0.46800
C358        C  0.57164963  0.87082176  0.40304699     0.74700
O359        O  0.60488304  0.87388837  0.46159324    -0.58700
O360        O  0.56349979  0.85897971  0.41582117    -0.48800
O361        O  0.60032363  0.86716295  0.41906930    -0.55100
C362        C  0.57502364  0.83467115  0.45282293     0.84900
O363        O  0.56363324  0.85985911  0.47682654    -0.57000
O364        O  0.58436290  0.87837885  0.41334392    -0.60300
In365      In  0.53070454  0.91735943  0.19661746     1.36900
C366        C  0.54430133  0.94540032  0.21281678     0.77400
O367        O  0.51298177  0.92022234  0.17583264    -0.61100
O368        O  0.50707128  0.90587062  0.21049946    -0.52000
C369        C  0.53802108  0.90776406  0.15099665     0.70000
O370        O  0.54601459  0.92040952  0.16106708    -0.46800
C371        C  0.53923126  0.90527614  0.23581017     0.74700
O372        O  0.54373636  0.94165525  0.18752615    -0.58700
O373        O  0.52582534  0.90064981  0.23042075    -0.48800
O374        O  0.53742856  0.93482268  0.22939441    -0.55100
C375        C  0.50293165  0.91170478  0.19233026     0.84900
O376        O  0.52605759  0.90016102  0.16385221    -0.57000
O377        O  0.54812528  0.91570141  0.22052369    -0.60300
In378      In  0.61066977  0.07894632  0.29264063     1.36900
C379        C  0.59829562  0.05084350  0.27639650     0.77400
O380        O  0.58949846  0.07317030  0.31472291    -0.61100
O381        O  0.59810808  0.09126256  0.28728055    -0.52000
C382        C  0.62788770  0.08880003  0.33793712     0.70000
O383        O  0.62248499  0.07584166  0.32882997    -0.46800
C384        C  0.63043893  0.09224525  0.25212186     0.74700
O385        O  0.60201082  0.06120569  0.25934300    -0.58700
O386        O  0.63323210  0.08768707  0.27438517    -0.48800
O387        O  0.60092227  0.05487523  0.30161262    -0.55100
C388        C  0.58794339  0.08322112  0.30401152     0.84900
O389        O  0.62433671  0.09673200  0.32393282    -0.57000
O390        O  0.61749685  0.09021559  0.25072992    -0.60300
In391      In  0.38373479  0.91462479  0.21291573     1.36900
C392        C  0.39684663  0.94281843  0.22951412     0.77400
O393        O  0.36173578  0.90661791  0.23346082    -0.61100
O394        O  0.37634109  0.90032301  0.25109719    -0.52000
C395        C  0.36592304  0.90500793  0.16837192     0.70000
O396        O  0.37087617  0.91764164  0.17878248    -0.46800
C397        C  0.40661954  0.91043477  0.20384328     0.74700
O398        O  0.39493664  0.93889999  0.20422243    -0.58700
O399        O  0.39719523  0.90389229  0.22271724    -0.48800
O400        O  0.39198628  0.93229004  0.24647836    -0.55100
C401        C  0.36397805  0.89964177  0.25243008     0.84900
O402        O  0.37044396  0.89730268  0.18032062    -0.57000
O403        O  0.40409537  0.91882079  0.18901965    -0.60300
In404      In  0.46460162  0.07683762  0.30812043     1.36900
C405        C  0.45065389  0.04858406  0.29237821     0.77400
O406        O  0.44861258  0.08259150  0.28826189    -0.61100
O407        O  0.46881919  0.08928422  0.26750644    -0.52000
C408        C  0.45831698  0.08716140  0.35404002     0.70000
O409        O  0.45028767  0.07422496  0.34513893    -0.46800
C410        C  0.49212465  0.08231685  0.31713052     0.74700
O411        O  0.44945743  0.05261879  0.31664835    -0.58700
O412        O  0.48910160  0.08975587  0.30056924    -0.48800
O413        O  0.45901138  0.05897382  0.27648275    -0.55100
C414        C  0.45662099  0.08896386  0.26739180     0.84900
O415        O  0.46971710  0.09479220  0.33956308    -0.57000
O416        O  0.48108659  0.07234387  0.32971843    -0.60300
In417      In  0.41356096  0.13212591  0.05882035     1.36900
C418        C  0.38433179  0.11516537  0.06197268     0.77400
O419        O  0.41297796  0.12840200  0.10516228    -0.61100
O420        O  0.43095420  0.12986982  0.08215670    -0.52000
C421        C  0.42418232  0.12420611  0.01544585     0.70000
O422        O  0.41181599  0.11578042  0.02630860    -0.46800
C423        C  0.41961974  0.16000418  0.05541758     0.74700
O424        O  0.39307771  0.11069234  0.06834183    -0.58700
O425        O  0.42171277  0.15469215  0.07744319    -0.48800
O426        O  0.39053470  0.12808173  0.05260570    -0.55100
C427        C  0.42452316  0.12749403  0.10547536     0.84900
O428        O  0.43096475  0.13681272  0.02636246    -0.57000
O429        O  0.41480545  0.15114444  0.03506550    -0.60300
In430      In  0.24708690  0.04842695  0.11402800     1.36900
C431        C  0.27626010  0.06290003  0.10807415     0.77400
O432        O  0.24911560  0.04361670  0.06907060    -0.61100
O433        O  0.22842705  0.03058658  0.08808815    -0.52000
C434        C  0.23805774  0.02918969  0.15593416     0.70000
O435        O  0.24881243  0.03172529  0.14042207    -0.46800
C436        C  0.24121071  0.06979646  0.12570524     0.74700
O437        O  0.26954471  0.05126960  0.12222741    -0.58700
O438        O  0.23582954  0.06136111  0.10482495    -0.48800
O439        O  0.26807133  0.06735675  0.09801989    -0.55100
C440        C  0.23616412  0.03314878  0.06639627     0.84900
O441        O  0.23188187  0.03649976  0.14991474    -0.57000
O442        O  0.24919400  0.06692924  0.14119276    -0.60300
In443      In  0.19858559  0.94376417  0.36568697     1.36900
C444        C  0.21337113  0.93081837  0.38331594     0.77400
O445        O  0.21531824  0.96270399  0.39102395    -0.61100
O446        O  0.19280106  0.95541502  0.39888556    -0.52000
C447        C  0.20511345  0.95987777  0.31944986     0.70000
O448        O  0.21118423  0.95256027  0.32601369    -0.46800
C449        C  0.17200673  0.92024327  0.35761861     0.74700
O450        O  0.21673464  0.93833408  0.36123507    -0.58700
O451        O  0.17490402  0.92907831  0.37770829    -0.48800
O452        O  0.20234951  0.92980591  0.39600348    -0.55100
C453        C  0.20605488  0.96429108  0.40516039     0.84900
O454        O  0.19521759  0.95858056  0.33621495    -0.57000
O455        O  0.18259578  0.92376998  0.34097889    -0.60300
In456      In  0.27874857  0.86246899  0.45899534     1.36900
C457        C  0.26703348  0.87926519  0.44720381     0.77400
O458        O  0.29995506  0.86687807  0.43912102    -0.61100
O459        O  0.28114577  0.85974238  0.41299758    -0.52000
C460        C  0.29640590  0.86920982  0.00385591     0.70000
O461        O  0.29314742  0.87751875  0.99047556    -0.46800
C462        C  0.25626396  0.83525021  0.46599616     0.74700
O463        O  0.26435287  0.87208290  0.46960543    -0.58700
O464        O  0.26739330  0.83804272  0.45144751    -0.48800
O465        O  0.27607029  0.87821861  0.43136559    -0.55100
C466        C  0.29471742  0.86393176  0.41462348     0.84900
O467        O  0.28970281  0.85903707  0.49649000    -0.57000
O468        O  0.25688672  0.84632110  0.47749894    -0.60300
C469        C  0.22165823  0.92385840  0.39376053    -0.01500
C470        C  0.21807022  0.91683006  0.41974001    -0.09500
C471        C  0.22565287  0.91007975  0.42999633    -0.18300
C472        C  0.23709160  0.91002705  0.41436078     0.04000
C473        C  0.24080988  0.91732613  0.38806285     0.18200
C474        C  0.23315171  0.92421083  0.37810719    -0.19800
C475        C  0.25201518  0.91754959  0.37171718    -0.21000
C476        C  0.25943531  0.91042277  0.38066002    -0.19600
C477        C  0.25589527  0.90297666  0.40624191     0.19600
C478        C  0.24479568  0.90280383  0.42365543     0.01700
C479        C  0.24176744  0.89522735  0.44942816    -0.14300
C480        C  0.24919925  0.88786773  0.45719838    -0.12000
C481        C  0.25988836  0.88783319  0.43968754     0.01300
C482        C  0.26328253  0.89552565  0.41435525    -0.24200
H483        H  0.20930583  0.91652530  0.43230117     0.09300
H484        H  0.22217303  0.90489359  0.45012071     0.12800
H485        H  0.23602653  0.92969275  0.35798933     0.11600
H486        H  0.25494591  0.92313037  0.35171299     0.12800
H487        H  0.26793388  0.91064320  0.36736244     0.11800
H488        H  0.23364670  0.89465517  0.46398717     0.08900
H489        H  0.24640396  0.88199815  0.47688377     0.12100
H490        H  0.27156639  0.89555075  0.40068515     0.14000
C491        C  0.21053616  0.97553820  0.42737648    -0.01500
C492        C  0.22540233  0.98624599  0.43021921    -0.09500
C493        C  0.23006988  0.99656059  0.45178539    -0.18300
C494        C  0.21997665  0.99642414  0.47163394     0.04000
C495        C  0.20482184  0.98571597  0.46835429     0.18200
C496        C  0.20024064  0.97545463  0.44626713    -0.19800
C497        C  0.19439365  0.98516931  0.48741857    -0.21000
C498        C  0.19779593  0.99177235  0.01142714    -0.19600
C499        C  0.21222834  0.00358988  0.01359482     0.19600
C500        C  0.22257187  0.00621949  0.99190360     0.01700
C501        C  0.23675505  0.01873592  0.99430009    -0.14300
C502        C  0.24082009  0.02763078  0.01807042    -0.12000
C503        C  0.23093766  0.02445424  0.04025158     0.01300
C504        C  0.21650925  0.01262602  0.03759608    -0.24200
H505        H  0.23354131  0.98660941  0.41573395     0.09300
H506        H  0.24171753  0.00438082  0.45245106     0.12800
H507        H  0.18869504  0.96718699  0.44416740     0.11600
H508        H  0.18281616  0.97708805  0.48499440     0.12800
H509        H  0.18978057  0.98979781  0.02765467     0.11800
H510        H  0.24503322  0.02191937  0.97823902     0.08900
H511        H  0.25194307  0.03688283  0.01935073     0.12100
H512        H  0.20871075  0.01024027  0.05447955     0.14000
C513        C  0.23318144  0.01859459  0.17927236    -0.01500
C514        C  0.24012538  0.01038488  0.18420363    -0.09500
C515        C  0.23574482  0.00048135  0.20639525    -0.18300
C516        C  0.22420828  0.99848425  0.22456436     0.04000
C517        C  0.21712853  0.00678340  0.21931121     0.18200
C518        C  0.22164829  0.01669678  0.19685726    -0.19800
C519        C  0.20559827  0.00517698  0.23653161    -0.21000
C520        C  0.20093517  0.99551186  0.25899165    -0.19600
C521        C  0.20772001  0.98724530  0.26486608     0.19600
C522        C  0.21946571  0.98860608  0.24774859     0.01700
C523        C  0.22600779  0.98008573  0.25472867    -0.14300
C524        C  0.22113685  0.97069402  0.27770437    -0.12000
C525        C  0.20960988  0.96942233  0.29452575     0.01300
C526        C  0.20290042  0.97769631  0.28794287    -0.24200
H527        H  0.24903482  0.01162641  0.17083052     0.09300
H528        H  0.24163121  0.99458390  0.20872029     0.12800
H529        H  0.21620513  0.02300883  0.19315372     0.11600
H530        H  0.20014948  0.01146007  0.23261907     0.12800
H531        H  0.19199019  0.99454305  0.27193901     0.11800
H532        H  0.23498516  0.98047901  0.24301520     0.08900
H533        H  0.22655612  0.96447297  0.28246182     0.12100
H534        H  0.19401243  0.97682336  0.30096215     0.14000
C535        C  0.29227699  0.07039949  0.10264792    -0.01500
C536        C  0.30067596  0.06410659  0.11113516    -0.09500
C537        C  0.31561197  0.07065257  0.10421875    -0.18300
C538        C  0.32265071  0.08381492  0.08857280     0.04000
C539        C  0.31410423  0.09031157  0.08065493     0.18200
C540        C  0.29910067  0.08355527  0.08758157    -0.19800
C541        C  0.32055263  0.10351995  0.06581149    -0.21000
C542        C  0.33539478  0.11055205  0.05882576    -0.19600
C543        C  0.34410951  0.10444383  0.06614611     0.19600
C544        C  0.33785550  0.09087269  0.08075291     0.01700
C545        C  0.34713501  0.08504266  0.08691169    -0.14300
C546        C  0.36208921  0.09268982  0.07988121    -0.12000
C547        C  0.36825708  0.10632597  0.06648574     0.01300
C548        C  0.35913755  0.11199424  0.05925779    -0.24200
H549        H  0.29562333  0.05393388  0.12281575     0.09300
H550        H  0.32134190  0.06516045  0.11146605     0.12800
H551        H  0.29267957  0.08852552  0.08100582     0.11600
H552        H  0.31409231  0.10852227  0.05975391     0.12800
H553        H  0.34009949  0.12086560  0.04761704     0.11800
H554        H  0.34320468  0.07466568  0.09731605     0.08900
H555        H  0.36892705  0.08805595  0.08556323     0.12100
H556        H  0.36381941  0.12250851  0.04874838     0.14000
C557        C  0.45198899  0.09534186  0.24462821    -0.01500
C558        C  0.43899150  0.09597357  0.24710637    -0.09500
C559        C  0.43434653  0.10169881  0.22556638    -0.18300
C560        C  0.44256672  0.10692229  0.20053404     0.04000
C561        C  0.45573739  0.10620900  0.19810071     0.18200
C562        C  0.46035023  0.10056221  0.22008348    -0.19800
C563        C  0.46417528  0.11099852  0.17362852    -0.21000
C564        C  0.45976269  0.11636401  0.15132968    -0.19600
C565        C  0.44686647  0.11720206  0.15300924     0.19600
C566        C  0.43812981  0.11264344  0.17771387     0.01700
C567        C  0.42530096  0.11392527  0.17834697    -0.14300
C568        C  0.42118447  0.11915733  0.15518964    -0.12000
C569        C  0.42966787  0.12328987  0.13072280     0.01300
C570        C  0.44257436  0.12242045  0.12989463    -0.24200
H571        H  0.43232616  0.09199533  0.26584982     0.09300
H572        H  0.42422039  0.10174774  0.22906870     0.12800
H573        H  0.47038564  0.10004442  0.21789837     0.11600
H574        H  0.47421113  0.11047461  0.17161418     0.12800
H575        H  0.46647673  0.11984770  0.13257844     0.11800
H576        H  0.41816512  0.11089101  0.19629121     0.08900
H577        H  0.41112984  0.11969671  0.15629296     0.12100
H578        H  0.44919113  0.12558355  0.11100860     0.14000
C579        C  0.45444590  0.09296528  0.37892029    -0.01500
C580        C  0.46338538  0.10759468  0.38734606    -0.09500
C581        C  0.45922651  0.11339989  0.40962731    -0.18300
C582        C  0.44585383  0.10470347  0.42418634     0.04000
C583        C  0.43708072  0.08972362  0.41607498     0.18200
C584        C  0.44144482  0.08403018  0.39374720    -0.19800
C585        C  0.42384034  0.08054793  0.42992861    -0.21000
C586        C  0.41888418  0.08599523  0.45126609    -0.19600
C587        C  0.42705352  0.10075153  0.45933669     0.19600
C588        C  0.44074834  0.11031973  0.44618674     0.01700
C589        C  0.44860967  0.12509201  0.45550381    -0.14300
C590        C  0.44310539  0.13007509  0.47697353    -0.12000
C591        C  0.42955151  0.12060526  0.48957864     0.01300
C592        C  0.42156700  0.10597770  0.48056813    -0.24200
H593        H  0.47355013  0.11468461  0.37635311     0.09300
H594        H  0.46661775  0.12477559  0.41467912     0.12800
H595        H  0.43450552  0.07265513  0.38751046     0.11600
H596        H  0.41716464  0.06909983  0.42398045     0.12800
H597        H  0.40850880  0.07862666  0.46138618     0.11800
H598        H  0.45905240  0.13305758  0.44669907     0.08900
H599        H  0.44947301  0.14142569  0.48368286     0.12100
H600        H  0.41113420  0.09854312  0.49046557     0.14000
C601        C  0.35319814  0.89171811  0.27484284    -0.01500
C602        C  0.35764524  0.88776954  0.29935057    -0.09500
C603        C  0.34793733  0.88154760  0.32178500    -0.18300
C604        C  0.33335004  0.87902188  0.32032965     0.04000
C605        C  0.32867770  0.88234702  0.29479175     0.18200
C606        C  0.33859841  0.88866623  0.27243629    -0.19800
C607        C  0.31426644  0.87976209  0.29199712    -0.21000
C608        C  0.30453937  0.87451949  0.31444188    -0.19600
C609        C  0.30901861  0.87182638  0.34028326     0.19600
C610        C  0.32340486  0.87379300  0.34351330     0.01700
C611        C  0.32739413  0.87102279  0.37015418    -0.14300
C612        C  0.31784583  0.86734228  0.39292443    -0.12000
C613        C  0.30392912  0.86595714  0.38981550     0.01300
C614        C  0.29938317  0.86773779  0.36325024    -0.24200
H615        H  0.36884992  0.88991711  0.30155736     0.09300
H616        H  0.35227851  0.87907116  0.34008944     0.12800
H617        H  0.33502885  0.89150289  0.25331580     0.11600
H618        H  0.31058633  0.88211327  0.27248733     0.12800
H619        H  0.29356234  0.87294981  0.31178873     0.11800
H620        H  0.33797291  0.87205604  0.37434641     0.08900
H621        H  0.32150162  0.86585775  0.41324661     0.12100
H622        H  0.28860854  0.86670089  0.36074343     0.14000
C623        C  0.35545363  0.89973769  0.14457642    -0.01500
C624        C  0.35225118  0.90952161  0.13073755    -0.09500
C625        C  0.34218102  0.90481311  0.10867000    -0.18300
C626        C  0.33488054  0.89001203  0.09959424     0.04000
C627        C  0.33813890  0.88007546  0.11369523     0.18200
C628        C  0.34831650  0.88498611  0.13601400    -0.19800
C629        C  0.33135082  0.86535235  0.10520223    -0.21000
C630        C  0.32175511  0.86038367  0.08239922    -0.19600
C631        C  0.31850392  0.86995252  0.06779565     0.19600
C632        C  0.32473598  0.88481736  0.07664899     0.01700
C633        C  0.32065231  0.89389250  0.06195733    -0.14300
C634        C  0.31134849  0.88863834  0.03875053    -0.12000
C635        C  0.30570883  0.87419021  0.02933788     0.01300
C636        C  0.30916090  0.86480473  0.04420004    -0.24200
H637        H  0.35761214  0.92097033  0.13694672     0.09300
H638        H  0.34052040  0.91309905  0.09898869     0.12800
H639        H  0.35067505  0.87731687  0.14672373     0.11600
H640        H  0.33368673  0.85768001  0.11595184     0.12800
H641        H  0.31691963  0.84899503  0.07602914     0.11800
H642        H  0.32445980  0.90512159  0.06777094     0.08900
H643        H  0.30867794  0.89604994  0.02791294     0.12100
H644        H  0.30468723  0.85353726  0.03727790     0.14000
C645        C  0.40429398  0.95842671  0.23832656    -0.01500
C646        C  0.41067492  0.96953467  0.21822536    -0.09500
C647        C  0.41821323  0.98430536  0.22612022    -0.18300
C648        C  0.41958625  0.98850781  0.25461687     0.04000
C649        C  0.41253344  0.97722814  0.27489666     0.18200
C650        C  0.40515931  0.96235803  0.26666624    -0.19800
C651        C  0.41285646  0.98087606  0.30322557    -0.21000
C652        C  0.42001446  0.99550265  0.31185257    -0.19600
C653        C  0.42744136  0.00684800  0.29249876     0.19600
C654        C  0.42757468  0.00348584  0.26366113     0.01700
C655        C  0.43592923  0.01524947  0.24518970    -0.14300
C656        C  0.44346061  0.02973132  0.25478637    -0.12000
C657        C  0.44287546  0.03306717  0.28299062     0.01300
C658        C  0.43486950  0.02155002  0.30181003    -0.24200
H659        H  0.40996360  0.96679978  0.19617811     0.09300
H660        H  0.42269298  0.99217183  0.20937265     0.12800
H661        H  0.40004398  0.95383508  0.28235255     0.11600
H662        H  0.40741795  0.97235596  0.31880403     0.12800
H663        H  0.41991744  0.99794866  0.33389010     0.11800
H664        H  0.43706953  0.01361828  0.22325493     0.08900
H665        H  0.44971595  0.03840392  0.23989306     0.12100
H666        H  0.43453013  0.02401395  0.32377125     0.14000
C667        C  0.57509032  0.08507030  0.31032877    -0.01500
C668        C  0.56507282  0.07655998  0.33122098    -0.09500
C669        C  0.55222950  0.07719538  0.33594467    -0.18300
C670        C  0.54884468  0.08629508  0.31952114     0.04000
C671        C  0.55938623  0.09542752  0.29922026     0.18200
C672        C  0.57237655  0.09480653  0.29494524    -0.19800
C673        C  0.55667413  0.10476905  0.28261845    -0.21000
C674        C  0.54340997  0.10473164  0.28472759    -0.19600
C675        C  0.53249634  0.09533238  0.30345464     0.19600
C676        C  0.53516340  0.08623329  0.32166112     0.01700
C677        C  0.52375345  0.07702402  0.34030271    -0.14300
C678        C  0.51000143  0.07619891  0.33950777    -0.12000
C679        C  0.50721517  0.08463902  0.32049835     0.01300
C680        C  0.51869103  0.09455196  0.30321521    -0.24200
H681        H  0.56703218  0.06912780  0.34373940     0.09300
H682        H  0.54503328  0.07018454  0.35214698     0.12800
H683        H  0.58012536  0.10153613  0.27890380     0.11600
H684        H  0.56471247  0.11188144  0.26733570     0.12800
H685        H  0.54150594  0.11180859  0.27100600     0.11800
H686        H  0.52494654  0.07000953  0.35515115     0.08900
H687        H  0.50137235  0.06859605  0.35335321     0.12100
H688        H  0.51667919  0.10121975  0.28858231     0.14000
C689        C  0.48772452  0.90920942  0.19129349    -0.01500
C690        C  0.47713113  0.89978009  0.21051295    -0.09500
C691        C  0.46322910  0.89855962  0.21172341    -0.18300
C692        C  0.45950330  0.90690785  0.19380310     0.04000
C693        C  0.47013260  0.91604982  0.17365595     0.18200
C694        C  0.48399038  0.91699154  0.17240590    -0.19800
C695        C  0.46707673  0.92460067  0.15547910    -0.21000
C696        C  0.45387367  0.92467731  0.15745132    -0.19600
C697        C  0.44332589  0.91610633  0.17749308     0.19600
C698        C  0.44584623  0.90688025  0.19565297     0.01700
C699        C  0.43472080  0.89832349  0.21527822    -0.14300
C700        C  0.42192656  0.89929331  0.21740102    -0.12000
C701        C  0.41971058  0.90871861  0.20001743     0.01300
C702        C  0.43037102  0.91693065  0.17981493    -0.24200
H703        H  0.47971847  0.89356095  0.22519947     0.09300
H704        H  0.45578969  0.89125758  0.22738881     0.12800
H705        H  0.49210344  0.92426213  0.15736435     0.11600
H706        H  0.47510040  0.93153680  0.14000064     0.12800
H707        H  0.45198577  0.93165813  0.14342974     0.11800
H708        H  0.43563555  0.89089576  0.22954002     0.08900
H709        H  0.41380775  0.89276661  0.23306586     0.12100
H710        H  0.42873073  0.92422883  0.16620256     0.14000
C711        C  0.55254494  0.96081426  0.22257772    -0.01500
C712        C  0.55189480  0.96406457  0.25079010    -0.09500
C713        C  0.55972143  0.97846864  0.26066601    -0.18300
C714        C  0.56855638  0.99023069  0.24251505     0.04000
C715        C  0.56933769  0.98687699  0.21389943     0.18200
C716        C  0.56138191  0.97226866  0.20422890    -0.19800
C717        C  0.57793144  0.99814117  0.19508583    -0.21000
C718        C  0.58539940  0.01273433  0.20387459    -0.19600
C719        C  0.58458572  0.01642435  0.23176690     0.19600
C720        C  0.57641529  0.00519624  0.25163454     0.01700
C721        C  0.57634199  0.00946444  0.27973212    -0.14300
C722        C  0.58367602  0.02422961  0.28756120    -0.12000
C723        C  0.59122767  0.03526454  0.26777265     0.01300
C724        C  0.59177078  0.03129918  0.23990825    -0.24200
H725        H  0.54523190  0.95539915  0.26542070     0.09300
H726        H  0.55848596  0.98000084  0.28258958     0.12800
H727        H  0.56205863  0.96982274  0.18238586     0.11600
H728        H  0.57869495  0.99566992  0.17330544     0.12800
H729        H  0.59175254  0.02120885  0.18867940     0.11800
H730        H  0.57068872  0.00169180  0.29621663     0.08900
H731        H  0.58318416  0.02703487  0.30923139     0.12100
H732        H  0.59778115  0.03980107  0.22453671     0.14000
C733        C  0.56601765  0.87666418  0.01039125    -0.01500
C734        C  0.55201822  0.86749462  0.02167940    -0.09500
C735        C  0.54689480  0.87209664  0.04437001    -0.18300
C736        C  0.55567047  0.88614388  0.05657749     0.04000
C737        C  0.56977390  0.89551406  0.04468176     0.18200
C738        C  0.57478588  0.89071913  0.02187230    -0.19800
C739        C  0.57884635  0.90958903  0.05571245    -0.21000
C740        C  0.57424030  0.91459041  0.07839844    -0.19600
C741        C  0.56046308  0.90562526  0.09069567     0.19600
C742        C  0.55098493  0.89123991  0.08008044     0.01700
C743        C  0.53726901  0.88258126  0.09356447    -0.14300
C744        C  0.53311388  0.88803139  0.11636362    -0.12000
C745        C  0.54242736  0.90223489  0.12652447     0.01300
C746        C  0.55611572  0.91096986  0.11363530    -0.24200
H747        H  0.54501271  0.85660920  0.01310572     0.09300
H748        H  0.53603010  0.86437960  0.05185762     0.12800
H749        H  0.58561088  0.89793377  0.01315740     0.11600
H750        H  0.58959903  0.91679029  0.04672811     0.12800
H751        H  0.58152857  0.92554901  0.08642220     0.11800
H752        H  0.52951194  0.87152953  0.08711265     0.08900
H753        H  0.52253763  0.88103918  0.12615208     0.12100
H754        H  0.56345196  0.92194958  0.12154402     0.14000
C755        C  0.56701859  0.87550093  0.37775472    -0.01500
C756        C  0.57768147  0.88685081  0.36136666    -0.09500
C757        C  0.57371526  0.89157605  0.33741247    -0.18300
C758        C  0.55879564  0.88516121  0.32910551     0.04000
C759        C  0.54798578  0.87353260  0.34567916     0.18200
C760        C  0.55218263  0.86874438  0.36964004    -0.19800
C761        C  0.53305734  0.86685421  0.33836668    -0.21000
C762        C  0.52859371  0.87157528  0.31509683    -0.19600
C763        C  0.53894895  0.88306482  0.29850080     0.19600
C764        C  0.55422043  0.88996778  0.30515311     0.01700
C765        C  0.56423500  0.90149842  0.28769363    -0.14300
C766        C  0.55928235  0.90610808  0.26494653    -0.12000
C767        C  0.54423640  0.89945738  0.25875908     0.01300
C768        C  0.53411152  0.88783944  0.27546125    -0.24200
H769        H  0.58924124  0.89210765  0.36702196     0.09300
H770        H  0.58262173  0.90033957  0.32601594     0.12800
H771        H  0.54387701  0.85990305  0.38220125     0.11600
H772        H  0.52475612  0.85798266  0.35085899     0.12800
H773        H  0.51694081  0.86625127  0.31013684     0.11800
H774        H  0.57597118  0.90730403  0.29111112     0.08900
H775        H  0.56731358  0.91513535  0.25238127     0.12100
H776        H  0.52242902  0.88264873  0.27079289     0.14000
C777        C  0.70226283  0.91722620  0.39866203    -0.01500
C778        C  0.69805015  0.91400218  0.42674943    -0.09500
C779        C  0.68318062  0.90636205  0.43428464    -0.18300
C780        C  0.67194847  0.90161007  0.41379996     0.04000
C781        C  0.67630445  0.90457954  0.38523935     0.18200
C782        C  0.69131807  0.91241893  0.37799720    -0.19800
C783        C  0.66565428  0.89975537  0.36404616    -0.21000
C784        C  0.65073184  0.89212002  0.37055966    -0.19600
C785        C  0.64607638  0.88937364  0.39846165     0.19600
C786        C  0.65658628  0.89411519  0.42055861     0.01700
C787        C  0.65122966  0.89142147  0.44840468    -0.14300
C788        C  0.63611953  0.88457643  0.45397264    -0.12000
C789        C  0.62587424  0.87998408  0.43207893     0.01300
C790        C  0.63092858  0.88219815  0.40438174    -0.24200
H791        H  0.70631087  0.91755161  0.44310554     0.09300
H792        H  0.68085171  0.90432165  0.45630766     0.12800
H793        H  0.69448636  0.91479439  0.35618737     0.11600
H794        H  0.66888979  0.90190795  0.34224451     0.12800
H795        H  0.64276483  0.88855033  0.35364168     0.11800
H796        H  0.65843156  0.89475169  0.46635601     0.08900
H797        H  0.63244089  0.88294556  0.47553820     0.12100
H798        H  0.62305074  0.87873920  0.38730254     0.14000
C799        C  0.78637150  0.01863797  0.06196575    -0.01500
C800        C  0.79513634  0.01260075  0.05420199    -0.09500
C801        C  0.79128193  0.00304420  0.03119073    -0.18300
C802        C  0.77853841  0.99934882  0.01501061     0.04000
C803        C  0.76970869  0.00550639  0.02320964     0.18200
C804        C  0.77363413  0.01492959  0.04643951    -0.19800
C805        C  0.75700274  0.00231900  0.00811963    -0.21000
C806        C  0.75163320  0.99340779  0.48775156    -0.19600
C807        C  0.76011249  0.98731343  0.47865471     0.19600
C808        C  0.77327453  0.99045619  0.49302173     0.01700
C809        C  0.78148374  0.98412087  0.48244463    -0.14300
C810        C  0.77667946  0.97493501  0.45885324    -0.12000
C811        C  0.76359414  0.97178078  0.44514410     0.01300
C812        C  0.75542382  0.97805643  0.45516664    -0.24200
H813        H  0.80500436  0.01525764  0.06598838     0.09300
H814        H  0.79851412  0.99879317  0.02649720     0.12800
H815        H  0.76679723  0.01957553  0.05223321     0.11600
H816        H  0.75025158  0.00699699  0.01428835     0.12800
H817        H  0.74161460  0.99106165  0.47681170     0.11800
H818        H  0.79164492  0.98606045  0.49191782     0.08900
H819        H  0.78317043  0.97018965  0.45145979     0.12100
H820        H  0.74528151  0.97568991  0.44466952     0.14000
C821        C  0.78570678  0.02210398  0.19891136    -0.01500
C822        C  0.77523420  0.02192097  0.21740828    -0.09500
C823        C  0.77014745  0.01228578  0.24004755    -0.18300
C824        C  0.77542365  0.00247085  0.24504947     0.04000
C825        C  0.78656747  0.00318871  0.22697031     0.18200
C826        C  0.79146433  0.01282737  0.20402691    -0.19800
C827        C  0.79271577  0.99424983  0.23188136    -0.21000
C828        C  0.78807953  0.98462954  0.25443805    -0.19600
C829        C  0.77685520  0.98336719  0.27216706     0.19600
C830        C  0.77014374  0.99205794  0.26737918     0.01700
C831        C  0.75825687  0.98971742  0.28484160    -0.14300
C832        C  0.75349299  0.97947293  0.30649300    -0.12000
C833        C  0.76051341  0.97135770  0.31180438     0.01300
C834        C  0.77218904  0.97335375  0.29452288    -0.24200
H835        H  0.77077698  0.02913542  0.21412973     0.09300
H836        H  0.76212386  0.01286244  0.25343536     0.12800
H837        H  0.79973139  0.01304368  0.19001784     0.11600
H838        H  0.80126586  0.99478712  0.21829247     0.12800
H839        H  0.79317500  0.97797158  0.25781683     0.11800
H840        H  0.75222327  0.99548257  0.28200724     0.08900
H841        H  0.74435783  0.97801774  0.31940859     0.12100
H842        H  0.77752144  0.96692917  0.29822964     0.14000
C843        C  0.64139515  0.09907463  0.22942340    -0.01500
C844        C  0.65612456  0.10298885  0.23398656    -0.09500
C845        C  0.66647647  0.10884079  0.21242900    -0.18300
C846        C  0.66235590  0.11081640  0.18528553     0.04000
C847        C  0.64737235  0.10682438  0.18079397     0.18200
C848        C  0.63713096  0.10117996  0.20283555    -0.19800
C849        C  0.64261690  0.10822361  0.15419658    -0.21000
C850        C  0.65234537  0.11322826  0.13174593    -0.19600
C851        C  0.66712729  0.11715276  0.13539359     0.19600
C852        C  0.67244477  0.11628014  0.16231044     0.01700
C853        C  0.68758342  0.12075784  0.16491042    -0.14300
C854        C  0.69686109  0.12535486  0.14159294    -0.12000
C855        C  0.69140240  0.12561303  0.11497977     0.04900
C856        C  0.67657292  0.12171274  0.11210628    -0.24200
H857        H  0.65967981  0.10144760  0.25436611     0.09300
H858        H  0.67753854  0.11145547  0.21758540     0.12800
H859        H  0.62572018  0.09806586  0.19907969     0.11600
H860        H  0.63122237  0.10520416  0.15062268     0.12800
H861        H  0.64824756  0.11394895  0.11131991     0.11800
H862        H  0.69257908  0.12073202  0.18459654     0.08900
H863        H  0.70830078  0.12835032  0.14432748     0.12100
H864        H  0.67228985  0.12197120  0.09157564     0.14000
C865        C  0.63779834  0.09425710  0.36259555    -0.01500
C866        C  0.64396941  0.10887770  0.37139797    -0.09500
C867        C  0.65380503  0.11421963  0.39397098    -0.18300
C868        C  0.65784908  0.10504655  0.40852173     0.04000
C869        C  0.65135759  0.09015062  0.39971660     0.18200
C870        C  0.64145440  0.08493070  0.37705102    -0.19800
C871        C  0.65488719  0.08055540  0.41339335    -0.21000
C872        C  0.66487636  0.08544937  0.43549535    -0.19600
C873        C  0.67159093  0.10006630  0.44453987     0.19600
C874        C  0.66813821  0.11008715  0.43131208     0.01700
C875        C  0.67519600  0.12470551  0.44145298    -0.14300
C876        C  0.68518489  0.12912889  0.46374371    -0.12000
C877        C  0.68857454  0.11922627  0.47660750     0.01300
C878        C  0.68174464  0.10470615  0.46682321    -0.24200
H879        H  0.64129040  0.11629149  0.36060808     0.09300
H880        H  0.65812514  0.12560312  0.39936600     0.12800
H881        H  0.63670542  0.07357770  0.37043972     0.11600
H882        H  0.64994371  0.06918131  0.40683774     0.12800
H883        H  0.66740682  0.07774075  0.44554008     0.11800
H884        H  0.67322046  0.13298981  0.43266732     0.08900
H885        H  0.69029429  0.14040368  0.47095227     0.12100
H886        H  0.68423134  0.09693431  0.47675246     0.14000
C887        C  0.73623652  0.10676667  0.06569749    -0.01500
C888        C  0.72957826  0.09553566  0.08554750    -0.09500
C889        C  0.73656217  0.08787892  0.09455029    -0.18300
C890        C  0.75049148  0.09120588  0.08377989     0.04000
C891        C  0.75711402  0.10258511  0.06353672     0.18200
C892        C  0.75000553  0.11021528  0.05482886    -0.19800
C893        C  0.77083096  0.10633676  0.05203475    -0.21000
C894        C  0.77814141  0.09897189  0.06000686    -0.19600
C895        C  0.77196159  0.08770845  0.07979329     0.19600
C896        C  0.75808718  0.08367378  0.09215730     0.01700
C897        C  0.75247969  0.07227344  0.11224295    -0.14300
C898        C  0.76028144  0.06515315  0.11945392    -0.12000
C899        C  0.77388308  0.06914173  0.10697865     0.01300
C900        C  0.77964010  0.08045058  0.08721367    -0.24200
H901        H  0.71898080  0.09275948  0.09443843     0.09300
H902        H  0.73078869  0.07943755  0.10993354     0.12800
H903        H  0.75526277  0.11893145  0.03953931     0.11600
H904        H  0.77593238  0.11501099  0.03664267     0.12800
H905        H  0.78872548  0.10211132  0.05058229     0.11800
H906        H  0.74211307  0.06860996  0.12273496     0.08900
H907        H  0.75562580  0.05646761  0.13487679     0.12100
H908        H  0.79017833  0.08364183  0.07750119     0.14000
C909        C  0.23849683  0.14961058  0.14160865    -0.01500
C910        C  0.22975884  0.13936493  0.12117696    -0.09500
C911        C  0.22865435  0.12559590  0.11968423    -0.18300
C912        C  0.23643823  0.12159998  0.13857284     0.04000
C913        C  0.24497958  0.13186082  0.15984468     0.18200
C914        C  0.24579544  0.14564154  0.16137950    -0.19800
C915        C  0.25309035  0.12852028  0.17876912    -0.21000
C916        C  0.25338106  0.11546530  0.17633145    -0.19600
C917        C  0.24538364  0.10530530  0.15518045     0.19600
C918        C  0.23648754  0.10804546  0.13644283     0.01700
C919        C  0.22831421  0.09724624  0.11593155    -0.14300
C920        C  0.22956053  0.08469213  0.11318343    -0.12000
C921        C  0.23884699  0.08235923  0.13083135     0.01300
C922        C  0.24648716  0.09255888  0.15222760    -0.24200
H923        H  0.22399997  0.14213607  0.10568136     0.09300
H924        H  0.22195541  0.11852539  0.10296366     0.12800
H925        H  0.25261348  0.15350609  0.17727083     0.11600
H926        H  0.25957279  0.13623396  0.19512814     0.12800
H927        H  0.26007987  0.11339712  0.19086165     0.11800
H928        H  0.22099532  0.09823046  0.10143450     0.08900
H929        H  0.22340484  0.07689049  0.09672103     0.12100
H930        H  0.25364046  0.09079704  0.16611912     0.14000
C931        C  0.42036704  0.24199777  0.05329636    -0.01500
C932        C  0.41819002  0.23436906  0.02804927    -0.09500
C933        C  0.41935436  0.22169305  0.02680417    -0.18300
C934        C  0.42254263  0.21606233  0.05105132     0.04000
C935        C  0.42487365  0.22394058  0.07657920     0.18200
C936        C  0.42397068  0.23684785  0.07738034    -0.19800
C937        C  0.42767223  0.21866811  0.10135420    -0.21000
C938        C  0.42782353  0.20551442  0.10153400    -0.19600
C939        C  0.42536944  0.19737181  0.07687267     0.19600
C940        C  0.42301980  0.20267850  0.05113117     0.01700
C941        C  0.42094912  0.19417677  0.02674471    -0.14300
C942        C  0.42036614  0.18061995  0.02816220    -0.12000
C943        C  0.42196665  0.17510941  0.05377088     0.01300
C944        C  0.42487313  0.18374757  0.07794394    -0.24200
H945        H  0.41535449  0.23810129  0.00917938     0.09300
H946        H  0.41733009  0.21635629  0.00668349     0.12800
H947        H  0.42555049  0.24260482  0.09709151     0.11600
H948        H  0.42945614  0.22461140  0.12088458     0.12800
H949        H  0.42970459  0.20159341  0.12119900     0.11800
H950        H  0.41953626  0.19759535  0.00629288     0.08900
H951        H  0.41834210  0.17426731  0.00911082     0.12100
H952        H  0.42625238  0.17963828  0.09784220     0.14000
C953        C  0.36650274  0.24884828  0.07574559    -0.01500
C954        C  0.35601703  0.24480055  0.05438917    -0.09500
C955        C  0.34097479  0.23621950  0.06020819    -0.18300
C956        C  0.33593685  0.23152523  0.08782857     0.04000
C957        C  0.34669227  0.23550315  0.10930239     0.18200
C958        C  0.36175986  0.24398923  0.10307533    -0.19800
C959        C  0.34236364  0.23126276  0.13701667    -0.21000
C960        C  0.32752771  0.22360759  0.14414831    -0.19600
C961        C  0.31665474  0.21991040  0.12370794     0.19600
C962        C  0.32066155  0.22344249  0.09511425     0.01700
C963        C  0.30918696  0.21900970  0.07523214    -0.14300
C964        C  0.29445067  0.21205318  0.08360410    -0.12000
C965        C  0.29065592  0.20933653  0.11195008     0.01300
C966        C  0.30178471  0.21300796  0.13183411    -0.24200
H967        H  0.35944561  0.24838080  0.03308072     0.09300
H968        H  0.33358100  0.23368199  0.04272428     0.12800
H969        H  0.36982147  0.24707623  0.11974155     0.11600
H970        H  0.35052254  0.23416921  0.15342183     0.12800
H971        H  0.32454238  0.22077719  0.16590460     0.11800
H972        H  0.31122611  0.22090842  0.05310939     0.08900
H973        H  0.28599505  0.20914876  0.06782353     0.12100
H974        H  0.29887980  0.21068359  0.15376137     0.14000
C975        C  0.20739514  0.23303584  0.45729333    -0.01500
C976        C  0.19880845  0.21822358  0.46457534    -0.09500
C977        C  0.20234221  0.21268942  0.48806086    -0.18300
C978        C  0.21463064  0.22189826  0.50509339     0.04000
C979        C  0.22306375  0.23700497  0.49783332     0.18200
C980        C  0.21940732  0.24237636  0.47417044    -0.19800
C981        C  0.23523545  0.24667559  0.51400713    -0.21000
C982        C  0.23947465  0.24163188  0.53700102    -0.19600
C983        C  0.23352336  0.22408766  0.03576184     0.19600
C984        C  0.21903497  0.21500595  0.02505639     0.01700
C985        C  0.21012175  0.20123936  0.03804319    -0.14300
C986        C  0.21549087  0.19663945  0.06034189    -0.12000
C987        C  0.22983321  0.20559595  0.07047867     0.01300
C988        C  0.23874190  0.21932437  0.05811648    -0.24200
H989        H  0.18940761  0.21083213  0.45187194     0.09300
H990        H  0.19204394  0.20103893  0.99669034     0.12800
H991        H  0.22601105  0.25390255  0.46880058     0.11600
H992        H  0.24163580  0.25821105  0.50864457     0.12800
H993        H  0.24907076  0.24937369  0.54890301     0.11800
H994        H  0.19897933  0.19376417  0.03140755     0.08900
H995        H  0.20838148  0.18601066  0.06967143     0.12100
H996        H  0.24986624  0.22634775  0.06583116     0.14000
C997        C  0.20993408  0.23381897  0.31904415    -0.01500
C998        C  0.20326712  0.21864462  0.31466342    -0.09500
C999        C  0.20733649  0.21297265  0.29204152    -0.18300
C1000       C  0.21841371  0.22236060  0.27304303     0.04000
C1001       C  0.22522616  0.23776445  0.27773036     0.18200
C1002       C  0.22087150  0.24332122  0.30039627    -0.19800
C1003       C  0.23641858  0.24754365  0.25986582    -0.21000
C1004       C  0.24109008  0.24238057  0.23749588    -0.19600
C1005       C  0.23460995  0.22729607  0.23222249     0.19600
C1006       C  0.22306797  0.21705341  0.24974574     0.01700
C1007       C  0.21669607  0.20195865  0.24310650    -0.14300
C1008       C  0.22164743  0.19726516  0.22026533    -0.12000
C1009       C  0.23319065  0.20735763  0.20338161     0.01300
C1010       C  0.23961429  0.22238821  0.20947847    -0.24200
H1011       H  0.19478352  0.21107365  0.32878087     0.09300
H1012       H  0.20168536  0.20118693  0.29017117     0.12800
H1013       H  0.22616046  0.25508420  0.30374047     0.11600
H1014       H  0.24167328  0.25929085  0.26332008     0.12800
H1015       H  0.24984268  0.25026188  0.22418884     0.11800
H1016       H  0.20780925  0.19348520  0.25505895     0.08900
H1017       H  0.21646098  0.18560520  0.21593594     0.12100
H1018       H  0.24845181  0.23030428  0.19634434     0.14000
C1019       C  0.21924953  0.29404071  0.40870272    -0.01500
C1020       C  0.21214458  0.29993050  0.42449776    -0.09500
C1021       C  0.21974658  0.31458486  0.43333880    -0.18300
C1022       C  0.23478652  0.32387590  0.42652283     0.04000
C1023       C  0.24186814  0.31783173  0.41028225     0.18200
C1024       C  0.23412093  0.30306605  0.40175279    -0.19800
C1025       C  0.25660345  0.32660439  0.40226558    -0.21000
C1026       C  0.26435688  0.34143616  0.40914060    -0.19600
C1027       C  0.25766185  0.34779965  0.42470928     0.19600
C1028       C  0.24293745  0.33902960  0.43443123     0.01700
C1029       C  0.23697979  0.34589887  0.45123412    -0.14300
C1030       C  0.24491064  0.36100579  0.45637232    -0.12000
C1031       C  0.25902637  0.36973105  0.44515669     0.01300
C1032       C  0.26550488  0.36298263  0.43003310    -0.24200
H1033       H  0.20064077  0.29316861  0.43011614     0.09300
H1034       H  0.21349234  0.31836298  0.44511564     0.12800
H1035       H  0.23970850  0.29859493  0.38954731     0.11600
H1036       H  0.26207820  0.32203452  0.39001791     0.12800
H1037       H  0.27563214  0.34801426  0.40196462     0.11800
H1038       H  0.22615925  0.33993201  0.46042975     0.08900
H1039       H  0.23979721  0.36593546  0.46863137     0.12100
H1040       H  0.27653031  0.36962450  0.42165391     0.14000
C1041       C  0.35090398  0.45492982  0.25786955    -0.01500
C1042       C  0.35030863  0.46577798  0.27402489    -0.09500
C1043       C  0.34054153  0.46193822  0.29667528    -0.18300
C1044       C  0.33107717  0.44703741  0.30391121     0.04000
C1045       C  0.33118035  0.43613801  0.28632595     0.18200
C1046       C  0.34098247  0.44015144  0.26369876    -0.19800
C1047       C  0.32178900  0.42123036  0.29181891    -0.21000
C1048       C  0.31249079  0.41682831  0.31484494    -0.19600
C1049       C  0.31248666  0.42721345  0.33321400     0.19600
C1050       C  0.32173526  0.44248577  0.32812909     0.01700
C1051       C  0.32151873  0.45241720  0.34801645    -0.14300
C1052       C  0.31266469  0.44733097  0.37205660    -0.12000
C1053       C  0.30361250  0.43224816  0.37681856     0.01300
C1054       C  0.30348158  0.42231057  0.35705101    -0.24200
H1055       H  0.35772683  0.47728901  0.26967392     0.09300
H1056       H  0.34079793  0.47084314  0.30839021     0.12800
H1057       H  0.34119678  0.43166419  0.25108199     0.11600
H1058       H  0.32175834  0.41288764  0.27837494     0.12800
H1059       H  0.30545939  0.40517979  0.31863958     0.11800
H1060       H  0.32830348  0.46414874  0.34585465     0.08900
H1061       H  0.31298659  0.45523142  0.38706832     0.12100
H1062       H  0.29661309  0.41061154  0.36061286     0.14000
C1063       C  0.35999923  0.45444393  0.12614284    -0.01500
C1064       C  0.35748938  0.46475724  0.11245641    -0.09500
C1065       C  0.34763915  0.46059637  0.08991714    -0.18300
C1066       C  0.33984441  0.44585278  0.08042558     0.04000
C1067       C  0.34281507  0.43555173  0.09388874     0.18200
C1068       C  0.35283808  0.43992376  0.11632446    -0.19800
C1069       C  0.33554479  0.42084976  0.08528724    -0.21000
C1070       C  0.32525193  0.41606773  0.06372771    -0.19600
C1071       C  0.32191199  0.42584655  0.05024310     0.19600
C1072       C  0.32912215  0.44088984  0.05834424     0.01700
C1073       C  0.32511815  0.45019969  0.04417317    -0.14300
C1074       C  0.31448411  0.44479019  0.02285926    -0.12000
C1075       C  0.30754397  0.42999136  0.01483569     0.01300
C1076       C  0.31133793  0.42060439  0.02868789    -0.24200
H1077       H  0.36296478  0.47606881  0.11953562     0.09300
H1078       H  0.34622253  0.46913072  0.08060181     0.12800
H1079       H  0.35474688  0.43186259  0.12669855     0.11600
H1080       H  0.33776541  0.41295152  0.09544426     0.12800
H1081       H  0.31978555  0.40459034  0.05766747     0.11800
H1082       H  0.32997171  0.46170474  0.04912628     0.08900
H1083       H  0.31177181  0.45227112  0.01244077     0.12100
H1084       H  0.30601257  0.40911665  0.02269680     0.14000
C1085       C  0.44642844  0.35112583  0.24731435    -0.01500
C1086       C  0.43332000  0.34780032  0.23356149    -0.09500
C1087       C  0.42864974  0.33874127  0.21001303    -0.18300
C1088       C  0.43691890  0.33250702  0.19952878     0.04000
C1089       C  0.44981352  0.33524560  0.21445622     0.18200
C1090       C  0.45459606  0.34470961  0.23784562    -0.19800
C1091       C  0.45781717  0.32851442  0.20592479    -0.21000
C1092       C  0.45329740  0.31913920  0.18284270    -0.19600
C1093       C  0.44096084  0.31666076  0.16715388     0.19600
C1094       C  0.43274160  0.32352234  0.17497138     0.01700
C1095       C  0.42082500  0.32126244  0.15762833    -0.14300
C1096       C  0.41694116  0.31215787  0.13411375    -0.12000
C1097       C  0.42477690  0.30504412  0.12702428     0.01300
C1098       C  0.43683712  0.30741371  0.14354926    -0.24200
H1099       H  0.42675153  0.35252115  0.24064932     0.09300
H1100       H  0.41844803  0.33672899  0.20067729     0.12800
H1101       H  0.46465204  0.34707312  0.24866467     0.11600
H1102       H  0.46756615  0.33041010  0.21732284     0.12800
H1103       H  0.45963168  0.31396357  0.17696624     0.11800
H1104       H  0.41440519  0.32650768  0.16142918     0.08900
H1105       H  0.40769473  0.31064769  0.12145800     0.12100
H1106       H  0.44302871  0.30203062  0.13806373     0.14000
C1107       C  0.44953939  0.35686814  0.38040196    -0.01500
C1108       C  0.45929135  0.35250089  0.39052382    -0.09500
C1109       C  0.45542127  0.34281631  0.41293723    -0.18300
C1110       C  0.44154476  0.33711284  0.42609192     0.04000
C1111       C  0.43163151  0.34154044  0.41566250     0.18200
C1112       C  0.43573299  0.35140945  0.39316213    -0.19800
C1113       C  0.41762259  0.33594941  0.42752100    -0.21000
C1114       C  0.41318083  0.32595854  0.44940868    -0.19600
C1115       C  0.42271058  0.32147049  0.46025086     0.19600
C1116       C  0.43709739  0.32708279  0.44899720     0.01700
C1117       C  0.44639182  0.32244129  0.46128987    -0.14300
C1118       C  0.44151492  0.31253339  0.48355974    -0.12000
C1119       C  0.42724554  0.30687562  0.49418105     0.01300
C1120       C  0.41792253  0.31141548  0.48242660    -0.24200
H1121       H  0.46997572  0.35647707  0.38084891     0.09300
H1122       H  0.46348666  0.33987455  0.41919813     0.12800
H1123       H  0.42807113  0.35465655  0.38529540     0.11600
H1124       H  0.40999604  0.33923533  0.41966280     0.12800
H1125       H  0.40221763  0.32174769  0.45799855     0.11800
H1126       H  0.45752950  0.32633597  0.45435575     0.08900
H1127       H  0.44894198  0.30925291  0.49244743     0.12100
H1128       H  0.40688868  0.30718137  0.49070704     0.14000
C1129       C  0.40437558  0.44260834  0.23128618    -0.01500
C1130       C  0.40521875  0.44119882  0.26025702    -0.09500
C1131       C  0.41254281  0.43433553  0.27136907    -0.18300
C1132       C  0.41944386  0.42873293  0.25373066     0.04000
C1133       C  0.41859303  0.43023752  0.22429628     0.18200
C1134       C  0.41095045  0.43695188  0.21339250    -0.19800
C1135       C  0.42555027  0.42522231  0.20592663    -0.21000
C1136       C  0.43341626  0.41879015  0.21614108    -0.19600
C1137       C  0.43427916  0.41694622  0.24496258     0.19600
C1138       C  0.42721809  0.42178444  0.26420544     0.01700
C1139       C  0.42811818  0.41929551  0.29306167    -0.14300
C1140       C  0.43552028  0.41213689  0.30231375    -0.12000
C1141       C  0.44241247  0.40738187  0.28327786     0.01300
C1142       C  0.44193766  0.41001637  0.25464035    -0.24200
H1143       H  0.40022799  0.44549300  0.27450545     0.09300
H1144       H  0.41277411  0.43379607  0.29386027     0.12800
H1145       H  0.41040466  0.43806656  0.19092566     0.11600
H1146       H  0.42499690  0.42638111  0.18348537     0.12800
H1147       H  0.43873546  0.41508702  0.20135961     0.11800
H1148       H  0.42299477  0.42248914  0.30901516     0.08900
H1149       H  0.43573546  0.41020079  0.32452739     0.12100
H1150       H  0.44718459  0.40628412  0.23973248     0.14000
C1151       C  0.57390198  0.75273124  0.45953095    -0.01500
C1152       C  0.56731772  0.75547156  0.43663023    -0.09500
C1153       C  0.56634398  0.76819777  0.43544430    -0.18300
C1154       C  0.57203237  0.77872823  0.45725677     0.04000
C1155       C  0.57827838  0.77566518  0.48093922     0.18200
C1156       C  0.57915933  0.76275896  0.48186639    -0.19800
C1157       C  0.58381298  0.78560822  0.50333102    -0.21000
C1158       C  0.58346608  0.79865333  0.50256724    -0.19600
C1159       C  0.57772858  0.80215500  0.47925875     0.19600
C1160       C  0.57190849  0.79224221  0.45625633     0.01700
C1161       C  0.56652710  0.79645209  0.43298091    -0.14300
C1162       C  0.56714156  0.81000513  0.43240757    -0.12000
C1163       C  0.57303304  0.81978341  0.45495339     0.01300
C1164       C  0.57810950  0.81570012  0.47851598    -0.24200
H1165       H  0.56309402  0.74783548  0.41920126     0.09300
H1166       H  0.56116835  0.76948381  0.41704463     0.12800
H1167       H  0.58424671  0.76068801  0.49972159     0.11600
H1168       H  0.58853416  0.78332570  0.52149464     0.12800
H1169       H  0.58792597  0.80616357  0.52016240     0.11800
H1170       H  0.56205527  0.78968525  0.41460485     0.08900
H1171       H  0.56324476  0.81296342  0.41389695     0.12100
H1172       H  0.58280037  0.82327354  0.49598136     0.14000
C1173       C  0.75231514  0.83901037  0.37406346    -0.01500
C1174       C  0.74829601  0.84321847  0.34930389    -0.09500
C1175       C  0.74915198  0.85689546  0.34727170    -0.18300
C1176       C  0.75405253  0.86683859  0.37014608     0.04000
C1177       C  0.75816170  0.86248314  0.39515993     0.18200
C1178       C  0.75730204  0.84874805  0.39683468    -0.19800
C1179       C  0.76293365  0.87176971  0.41856163    -0.21000
C1180       C  0.76350160  0.88524666  0.41789959    -0.19600
C1181       C  0.75933169  0.88979594  0.39380083     0.19600
C1182       C  0.75474152  0.88077955  0.36939924     0.01700
C1183       C  0.75079187  0.88602683  0.34557210    -0.14300
C1184       C  0.75064534  0.89924409  0.34649509    -0.12000
C1185       C  0.75458057  0.90774363  0.37097379     0.01300
C1186       C  0.75932095  0.90315101  0.39428382    -0.24200
H1187       H  0.74432516  0.83584089  0.33146868     0.09300
H1188       H  0.74574566  0.85928327  0.32763922     0.12800
H1189       H  0.76035244  0.84554986  0.41615323     0.11600
H1190       H  0.76609283  0.86850916  0.43766318     0.12800
H1191       H  0.76705084  0.89208357  0.43652548     0.11800
H1192       H  0.74748821  0.88004575  0.32607791     0.08900
H1193       H  0.74708578  0.90265032  0.32811749     0.12100
H1194       H  0.76245767  0.90970085  0.41329438     0.14000
C1195       C  0.70237361  0.77393472  0.40478255    -0.01500
C1196       C  0.69285072  0.76064571  0.39140324    -0.09500
C1197       C  0.67797477  0.75265529  0.39870075    -0.18300
C1198       C  0.67210138  0.75777420  0.41972656     0.04000
C1199       C  0.68187895  0.77122336  0.43342495     0.18200
C1200       C  0.69684436  0.77909477  0.42596973    -0.19800
C1201       C  0.67664004  0.77683996  0.45425466    -0.21000
C1202       C  0.66179656  0.76953225  0.46144664    -0.19600
C1203       C  0.65184662  0.75636107  0.44815701     0.19600
C1204       C  0.65687315  0.75016999  0.42736550     0.01700
C1205       C  0.64639147  0.73671416  0.41494303    -0.14300
C1206       C  0.63154062  0.72991981  0.42235766    -0.12000
C1207       C  0.62660312  0.73626345  0.44227731     0.01300
C1208       C  0.63683484  0.74942129  0.45531241    -0.24200
H1209       H  0.69690184  0.75640258  0.37507597     0.09300
H1210       H  0.67136866  0.74259910  0.38728618     0.12800
H1211       H  0.70417883  0.78935171  0.43653294     0.11600
H1212       H  0.68404801  0.78705916  0.46483430     0.12800
H1213       H  0.65805572  0.77426891  0.47740840     0.11800
H1214       H  0.64926183  0.73118150  0.39929676     0.08900
H1215       H  0.62382571  0.71974953  0.41200143     0.12100
H1216       H  0.63308638  0.75437005  0.47083821     0.14000
C1217       C  0.78593020  0.75902251  0.06730636    -0.01500
C1218       C  0.79498931  0.77334647  0.05767872    -0.09500
C1219       C  0.79071972  0.77866029  0.03488378    -0.18300
C1220       C  0.77722106  0.76968204  0.02080585     0.04000
C1221       C  0.76826046  0.75501572  0.03034241     0.18200
C1222       C  0.77260726  0.74990373  0.05347729    -0.19800
C1223       C  0.75502754  0.74549148  0.01669708    -0.21000
C1224       C  0.75046131  0.75019651  0.99364873    -0.19600
C1225       C  0.76051771  0.76526755  0.48102526     0.19600
C1226       C  0.77357090  0.77532190  0.49560579     0.01700
C1227       C  0.78137823  0.79000457  0.48596626    -0.14300
C1228       C  0.77639091  0.79446218  0.46289269    -0.12000
C1229       C  0.76352765  0.78447476  0.44870546     0.01300
C1230       C  0.75568841  0.76989391  0.45786867    -0.24200
H1231       H  0.80540299  0.78052412  0.06792775     0.09300
H1232       H  0.79834323  0.79074963  0.52973909     0.12800
H1233       H  0.76563351  0.73871146  0.06058226     0.11600
H1234       H  0.74819211  0.73428716  0.02380885     0.12800
H1235       H  0.74019907  0.74252683  0.98341935     0.11800
H1236       H  0.79131300  0.79833300  0.49588497     0.08900
H1237       H  0.78258699  0.80580714  0.45624737     0.12100
H1238       H  0.74567246  0.76209474  0.44706675     0.14000
C1239       C  0.78643135  0.75923334  0.20049659    -0.01500
C1240       C  0.79702265  0.76929359  0.21903877    -0.09500
C1241       C  0.79288738  0.77499071  0.24148768    -0.18300
C1242       C  0.77794464  0.77092297  0.24579073     0.04000
C1243       C  0.76727294  0.76070533  0.22674097     0.18200
C1244       C  0.77158027  0.75493230  0.20452124    -0.19800
C1245       C  0.75234596  0.75627520  0.22995719    -0.21000
C1246       C  0.74770568  0.76165803  0.25192390    -0.19600
C1247       C  0.75788424  0.77164234  0.27116121     0.19600
C1248       C  0.77317359  0.77653177  0.26830894     0.01700
C1249       C  0.78296664  0.78676515  0.28821176    -0.14300
C1250       C  0.77773200  0.79159480  0.31036625    -0.12000
C1251       C  0.76263672  0.78648411  0.31335842     0.01300
C1252       C  0.75280175  0.77664685  0.29346198    -0.24200
H1253       H  0.80855847  0.77265721  0.21634874     0.09300
H1254       H  0.80164322  0.78253811  0.25505669     0.12800
H1255       H  0.76334783  0.74717637  0.19009261     0.11600
H1256       H  0.74418107  0.74852804  0.21544543     0.12800
H1257       H  0.73604883  0.75793124  0.25394937     0.11800
H1258       H  0.79471512  0.79117053  0.28739502     0.08900
H1259       H  0.78554797  0.79925294  0.32543083     0.12100
H1260       H  0.74108987  0.77265195  0.29559360     0.14000
C1261       C  0.77647327  0.69787523  0.11701673    -0.01500
C1262       C  0.76829014  0.68731259  0.13725876    -0.09500
C1263       C  0.75997466  0.67245242  0.12992229    -0.18300
C1264       C  0.75958239  0.66775631  0.10190722     0.04000
C1265       C  0.76785361  0.67861872  0.08155142     0.18200
C1266       C  0.77619584  0.69341838  0.08926720    -0.19800
C1267       C  0.76770736  0.67471635  0.05347637    -0.21000
C1268       C  0.75943653  0.66017019  0.04500057    -0.19600
C1269       C  0.75120820  0.64915810  0.06444625     0.19600
C1270       C  0.75124174  0.65274612  0.09323746     0.01700
C1271       C  0.74298120  0.64113463  0.11205356    -0.14300
C1272       C  0.73498207  0.62664177  0.10262542    -0.12000
C1273       C  0.73485125  0.62321880  0.07424643     0.01300
C1274       C  0.74298380  0.63453037  0.05523302    -0.24200
H1275       H  0.76821997  0.69054635  0.15879640     0.09300
H1276       H  0.75388746  0.66497126  0.14654602     0.12800
H1277       H  0.78238597  0.70155163  0.07339950     0.11600
H1278       H  0.77398895  0.68299549  0.03790702     0.12800
H1279       H  0.75950907  0.65751302  0.02307534     0.11800
H1280       H  0.74255769  0.64285285  0.13417549     0.08900
H1281       H  0.72884887  0.61804480  0.11772991     0.12100
H1282       H  0.74306182  0.63193210  0.03326335     0.14000
C1283       C  0.48962916  0.57430548  0.19736124    -0.01500
C1284       C  0.47744653  0.57316376  0.21174041    -0.09500
C1285       C  0.46386504  0.56016060  0.21117104    -0.18300
C1286       C  0.46198547  0.54771003  0.19618421     0.04000
C1287       C  0.47424188  0.54906959  0.18079003     0.18200
C1288       C  0.48787398  0.56227873  0.18149201    -0.19800
C1289       C  0.47289653  0.53714088  0.16524942    -0.21000
C1290       C  0.45973068  0.52377892  0.16509919    -0.19600
C1291       C  0.44756865  0.52196739  0.18056471     0.19600
C1292       C  0.44848833  0.53392704  0.19624706     0.01700
C1293       C  0.43593203  0.53146634  0.21172126    -0.14300
C1294       C  0.42311083  0.51773334  0.21181085    -0.12000
C1295       C  0.42224522  0.50598666  0.19638226     0.01300
C1296       C  0.43451801  0.50820436  0.18067782    -0.24200
H1297       H  0.47847487  0.58231243  0.22401820     0.09300
H1298       H  0.45510741  0.56018441  0.22297222     0.12800
H1299       H  0.49722143  0.56307833  0.17015643     0.11600
H1300       H  0.48214962  0.53810462  0.15333380     0.12800
H1301       H  0.45911194  0.51473736  0.15303352     0.11800
H1302       H  0.43568073  0.53988145  0.22423618     0.08900
H1303       H  0.41379522  0.51630798  0.22411476     0.12100
H1304       H  0.43398429  0.49914919  0.16877385     0.14000
C1305       C  0.53907602  0.64189344  0.27191289    -0.01500
C1306       C  0.53091776  0.63749054  0.29671207    -0.09500
C1307       C  0.53457718  0.64719664  0.31922017    -0.18300
C1308       C  0.54656204  0.66174658  0.31752899     0.04000
C1309       C  0.55438557  0.66633920  0.29180239     0.18200
C1310       C  0.55067273  0.65639057  0.26942870    -0.19800
C1311       C  0.56602156  0.68075688  0.28871010    -0.21000
C1312       C  0.57037039  0.69063731  0.31094192    -0.19600
C1313       C  0.56332805  0.68627426  0.33692890     0.19600
C1314       C  0.55123564  0.67179866  0.34054759     0.01700
C1315       C  0.54465344  0.66787191  0.36732193    -0.14300
C1316       C  0.55016774  0.67770350  0.38971343    -0.12000
C1317       C  0.56228202  0.69179956  0.38623162     0.01300
C1318       C  0.56861357  0.69615686  0.35961461    -0.24200
H1319       H  0.52185767  0.62635082  0.29900828     0.09300
H1320       H  0.52785732  0.64292099  0.33765391     0.12800
H1321       H  0.55692375  0.65990439  0.25011418     0.11600
H1322       H  0.57191796  0.68437075  0.26904831     0.12800
H1323       H  0.57953936  0.70166751  0.30797827     0.11800
H1324       H  0.53548178  0.65716791  0.37191283     0.08900
H1325       H  0.54507155  0.67411036  0.41007465     0.12100
H1326       H  0.57803043  0.70706056  0.35677763     0.14000
C1327       C  0.56592786  0.68847361  0.02590381    -0.01500
C1328       C  0.55108182  0.68160511  0.03383862    -0.09500
C1329       C  0.54582074  0.67155902  0.05591328    -0.18300
C1330       C  0.55532918  0.66806848  0.07088144     0.04000
C1331       C  0.57043338  0.67525173  0.06291033     0.18200
C1332       C  0.57554033  0.68527935  0.04064315    -0.19800
C1333       C  0.58038669  0.67237173  0.07713607    -0.21000
C1334       C  0.57568771  0.66246529  0.09916397    -0.19600
C1335       C  0.56089970  0.65513487  0.10746251     0.19600
C1336       C  0.55046268  0.65777479  0.09345664     0.01700
C1337       C  0.53564897  0.64999285  0.10273475    -0.14300
C1338       C  0.53147859  0.64022261  0.12520077    -0.12000
C1339       C  0.54184682  0.63777703  0.13898152     0.01300
C1340       C  0.55652086  0.64521083  0.12985890    -0.24200
H1341       H  0.54343986  0.68390424  0.02275632     0.09300
H1342       H  0.53426625  0.66671039  0.06070865     0.12800
H1343       H  0.58706541  0.69058272  0.03469980     0.11600
H1344       H  0.59191171  0.67783409  0.07118828     0.12800
H1345       H  0.58369133  0.66051066  0.10977988     0.11800
H1346       H  0.52703301  0.65124612  0.09315879     0.08900
H1347       H  0.52006634  0.63457343  0.13186036     0.12100
H1348       H  0.56464038  0.64342780  0.14049112     0.14000
C1349       C  0.57084743  0.48498231  0.30262766    -0.01500
C1350       C  0.56676780  0.47481125  0.28073592    -0.09500
C1351       C  0.55403456  0.46107860  0.28259785    -0.18300
C1352       C  0.54493253  0.45704770  0.30663177     0.04000
C1353       C  0.54913671  0.46744928  0.32878840     0.18200
C1354       C  0.56199021  0.48122357  0.32661782    -0.19800
C1355       C  0.54038159  0.46412726  0.35280983    -0.21000
C1356       C  0.52724550  0.45083909  0.35495991    -0.19600
C1357       C  0.52263538  0.44047642  0.33327967     0.19600
C1358       C  0.53162535  0.44325909  0.30915429     0.01700
C1359       C  0.52676917  0.43219616  0.28838945    -0.14300
C1360       C  0.51314685  0.41938998  0.29057105    -0.12000
C1361       C  0.50390794  0.41711433  0.31345443     0.01300
C1362       C  0.50888909  0.42750090  0.33518412    -0.24200
H1363       H  0.57337574  0.47753742  0.26189708     0.09300
H1364       H  0.55152826  0.45397013  0.26466261     0.12800
H1365       H  0.56505260  0.48908675  0.34362006     0.11600
H1366       H  0.54357531  0.47198302  0.36983894     0.12800
H1367       H  0.52055164  0.44873416  0.37355531     0.11800
H1368       H  0.53313724  0.43316339  0.26997505     0.08900
H1369       H  0.50963327  0.41141706  0.27371557     0.12100
H1370       H  0.50187795  0.42570457  0.35319076     0.14000
C1371       C  0.63245397  0.53033357  0.22554876    -0.01500
C1372       C  0.64493864  0.52871158  0.22595899    -0.09500
C1373       C  0.65430445  0.53268659  0.20267265    -0.18300
C1374       C  0.65159177  0.53875367  0.17846872     0.04000
C1375       C  0.63879034  0.54017829  0.17825413     0.18200
C1376       C  0.62929305  0.53571888  0.20133041    -0.19800
C1377       C  0.63579472  0.54661022  0.15548008    -0.21000
C1378       C  0.64560008  0.55230111  0.13330218    -0.19600
C1379       C  0.65843195  0.55132408  0.13298416     0.19600
C1380       C  0.66137813  0.54406034  0.15500684     0.01700
C1381       C  0.67412531  0.54271490  0.15272466    -0.14300
C1382       C  0.68390587  0.54903121  0.13032658    -0.12000
C1383       C  0.68136341  0.55694941  0.10970550     0.01300
C1384       C  0.66847329  0.55782423  0.11092415    -0.24200
H1385       H  0.64762879  0.52462504  0.24451727     0.09300
H1386       H  0.66384845  0.53139513  0.20461675     0.12800
H1387       H  0.61972359  0.53713839  0.20089160     0.11600
H1388       H  0.62602251  0.54768090  0.15523466     0.12800
H1389       H  0.64319624  0.55763964  0.11639457     0.11800
H1390       H  0.67685059  0.53690765  0.16796762     0.08900
H1391       H  0.69371879  0.54805357  0.12956619     0.12100
H1392       H  0.66629880  0.56370858  0.09473567     0.14000
C1393       C  0.63544984  0.54078304  0.36480315    -0.01500
C1394       C  0.64368146  0.55580472  0.37073901    -0.09500
C1395       C  0.65345781  0.56098513  0.39328535    -0.18300
C1396       C  0.65537261  0.55121130  0.41074249     0.04000
C1397       C  0.64676932  0.53592395  0.40497805     0.18200
C1398       C  0.63689019  0.53085930  0.38223149    -0.19800
C1399       C  0.64822861  0.52580366  0.42169574    -0.21000
C1400       C  0.65827601  0.53056040  0.44376095    -0.19600
C1401       C  0.66704437  0.54555443  0.44978514     0.19600
C1402       C  0.66561511  0.55608503  0.43350338     0.01700
C1403       C  0.67455294  0.57107603  0.44062282    -0.14300
C1404       C  0.68441000  0.57540064  0.46295496    -0.12000
C1405       C  0.68582771  0.56505561  0.47892560     0.01300
C1406       C  0.67718537  0.55011127  0.47214292    -0.24200
H1407       H  0.64269107  0.56368027  0.35768927     0.09300
H1408       H  0.65941299  0.57267904  0.39620669     0.12800
H1409       H  0.63046529  0.51919001  0.37787804     0.11600
H1410       H  0.64165488  0.51412829  0.41750909     0.12800
H1411       H  0.65921482  0.52245215  0.45615760     0.11800
H1412       H  0.67417722  0.57975202  0.42956106     0.08900
H1413       H  0.68886293  0.58725465  0.97106733     0.12100
H1414       H  0.67815198  0.54202198  0.48455168     0.14000
C1415       C  0.59033616  0.55350746  0.28045781    -0.01500
C1416       C  0.57923585  0.55305751  0.29744290    -0.09500
C1417       C  0.57261784  0.56135270  0.29081545    -0.18300
C1418       C  0.57675094  0.57019809  0.26653410     0.04000
C1419       C  0.58778921  0.57032167  0.24901159     0.18200
C1420       C  0.59466698  0.56227636  0.25640891    -0.19800
C1421       C  0.59157975  0.57811356  0.22379996    -0.21000
C1422       C  0.58426662  0.58539550  0.21511890    -0.19600
C1423       C  0.57339182  0.58552778  0.23195457     0.19600
C1424       C  0.56990816  0.57843547  0.25842803     0.01700
C1425       C  0.55965814  0.57983174  0.27554415    -0.14300
C1426       C  0.55241250  0.58706802  0.26592836    -0.12000
C1427       C  0.55509132  0.59308857  0.23901417     0.01300
C1428       C  0.56583815  0.59257288  0.22235386    -0.24200
H1429       H  0.57558277  0.54618732  0.31590509     0.09300
H1430       H  0.56396956  0.56023408  0.30460928     0.12800
H1431       H  0.60306499  0.56244300  0.24286282     0.11600
H1432       H  0.59995866  0.57822035  0.21030855     0.12800
H1433       H  0.58712703  0.59095097  0.19508826     0.11800
H1434       H  0.55704980  0.57549697  0.29649384     0.08900
H1435       H  0.54443289  0.58768085  0.27946423     0.12100
H1436       H  0.56824666  0.59755675  0.20176740     0.14000
C1437       C  0.95718069  0.54780239  0.26855805    -0.01500
C1438       C  0.96102107  0.54743754  0.24059326    -0.09500
C1439       C  0.97576561  0.55480903  0.23214667    -0.18300
C1440       C  0.98726825  0.56282400  0.25156344     0.04000
C1441       C  0.98333579  0.56281797  0.28009041     0.18200
C1442       C  0.96842448  0.55544001  0.28825091    -0.19800
C1443       C  0.99430720  0.57020777  0.30031130    -0.21000
C1444       C  0.00913027  0.57757622  0.29287072    -0.19600
C1445       C  0.01336845  0.57796248  0.26493631     0.19600
C1446       C  0.00250652  0.57076619  0.24377712     0.01700
C1447       C  0.00739302  0.57197503  0.21574844    -0.14300
C1448       C  0.02240587  0.57977651  0.20915108    -0.12000
C1449       C  0.03305649  0.58651639  0.23015572     0.01300
C1450       C  0.02844168  0.58558293  0.25802500    -0.24200
H1451       H  0.95255173  0.54155070  0.22498835     0.09300
H1452       H  0.97778683  0.55396849  0.21029967     0.12800
H1453       H  0.96557005  0.55570280  0.30998743     0.11600
H1454       H  0.99140735  0.57022697  0.32209315     0.12800
H1455       H  0.01734432  0.58310178  0.30908495     0.11800
H1456       H  0.99989624  0.56714225  0.19840662     0.08900
H1457       H  0.02569627  0.58044495  0.18745321     0.12100
H1458       H  0.03660758  0.59094310  0.27439861     0.14000
C1459       C  0.09035700  0.83826827  0.35272815    -0.01500
C1460       C  0.10061608  0.84118919  0.33135750    -0.09500
C1461       C  0.11376124  0.85467223  0.33019935    -0.18300
C1462       C  0.11713601  0.86566237  0.35072321     0.04000
C1463       C  0.10658768  0.86262197  0.37221484     0.18200
C1464       C  0.09336418  0.84910818  0.37289075    -0.19800
C1465       C  0.10936335  0.87299059  0.39322825    -0.21000
C1466       C  0.12249936  0.88630637  0.39364307    -0.19600
C1467       C  0.13317850  0.88962180  0.37299422     0.19600
C1468       C  0.13064264  0.87943574  0.35104824     0.01700
C1469       C  0.14183089  0.88344657  0.33068207    -0.14300
C1470       C  0.15506978  0.89681612  0.33250573    -0.12000
C1471       C  0.15758505  0.90663508  0.35451452     0.01300
C1472       C  0.14650318  0.90302446  0.37447941    -0.24200
H1473       H  0.09852389  0.83296449  0.31552749     0.09300
H1474       H  0.12111713  0.85607558  0.31321325     0.12800
H1475       H  0.08551865  0.84690225  0.38960095     0.11600
H1476       H  0.10136522  0.87072706  0.40965149     0.12800
H1477       H  0.12436274  0.89403554  0.41038262     0.11800
H1478       H  0.14075624  0.87644627  0.31325920     0.08900
H1479       H  0.16347455  0.89937462  0.31680423     0.12100
H1480       H  0.14835374  0.91055900  0.39160005     0.14000
C1481       C  0.17559575  0.75271642  0.46750995    -0.01500
C1482       C  0.18703782  0.75429127  0.45004643    -0.09500
C1483       C  0.20078677  0.76713353  0.45059959    -0.18300
C1484       C  0.20348931  0.77896399  0.46854084     0.04000
C1485       C  0.19178699  0.77731957  0.48610130     0.18200
C1486       C  0.17812121  0.76422577  0.48572248    -0.19800
C1487       C  0.19364663  0.78889085  0.50342097    -0.21000
C1488       C  0.20676316  0.80224589  0.50314699    -0.19600
C1489       C  0.21847501  0.80424196  0.48605757     0.19600
C1490       C  0.21718288  0.79251697  0.46907173     0.01700
C1491       C  0.22960878  0.79495820  0.45316282    -0.14300
C1492       C  0.24244039  0.80869031  0.45295994    -0.12000
C1493       C  0.24331975  0.82039059  0.46855859     0.01300
C1494       C  0.23140903  0.81800554  0.48551518    -0.24200
H1495       H  0.18531045  0.74560095  0.43561432     0.09300
H1496       H  0.20894347  0.76759959  0.43622554     0.12800
H1497       H  0.16927345  0.76316836  0.49910064     0.11600
H1498       H  0.18476749  0.78771471  0.51682618     0.12800
H1499       H  0.20772712  0.81110455  0.51630988     0.11800
H1500       H  0.22973765  0.78650475  0.44055605     0.08900
H1501       H  0.25159827  0.81023962  0.43999816     0.12100
H1502       H  0.23208442  0.82697433  0.49794859     0.14000
C1503       C  0.09531293  0.63966970  0.14504188    -0.01500
C1504       C  0.10866389  0.64280428  0.13248686    -0.09500
C1505       C  0.11446250  0.65270067  0.11020037    -0.18300
C1506       C  0.10704476  0.65985233  0.09972861     0.04000
C1507       C  0.09357293  0.65671519  0.11280345     0.18200
C1508       C  0.08788971  0.64674871  0.13515054    -0.19800
C1509       C  0.08576678  0.66347664  0.10343518    -0.21000
C1510       C  0.09099144  0.67327703  0.08122934    -0.19600
C1511       C  0.10416845  0.67658710  0.06779951     0.19600
C1512       C  0.11242428  0.66994761  0.07678774     0.01700
C1513       C  0.12563134  0.67367530  0.06228586    -0.14300
C1514       C  0.13034537  0.68349465  0.03981694    -0.12000
C1515       C  0.12212496  0.68994644  0.03106058     0.01300
C1516       C  0.10907314  0.68646765  0.04526318    -0.24200
H1517       H  0.11463528  0.63750564  0.13981151     0.09300
H1518       H  0.12473944  0.65448973  0.10159788     0.12800
H1519       H  0.07759005  0.64446037  0.14483189     0.11600
H1520       H  0.07550189  0.66113621  0.11332077     0.12800
H1521       H  0.08464356  0.67828433  0.07445852     0.11800
H1522       H  0.13252050  0.66913542  0.06768421     0.08900
H1523       H  0.14044971  0.68597148  0.02911748     0.12100
H1524       H  0.10259791  0.69135766  0.03857700     0.14000
C1525       C  0.09467812  0.63751947  0.27914737    -0.01500
C1526       C  0.10840530  0.64132770  0.29072988    -0.09500
C1527       C  0.11366541  0.65047644  0.31424809    -0.18300
C1528       C  0.10521064  0.65598976  0.32708382     0.04000
C1529       C  0.09120450  0.65190972  0.31527135     0.18200
C1530       C  0.08614067  0.64282820  0.29155614    -0.19800
C1531       C  0.08232117  0.65695583  0.32708047    -0.21000
C1532       C  0.08711510  0.66617481  0.35027219    -0.19600
C1533       C  0.10090110  0.67055527  0.36223587     0.19600
C1534       C  0.11013831  0.66546956  0.35100431     0.01700
C1535       C  0.12393513  0.67023206  0.36409399    -0.14300
C1536       C  0.12849116  0.67992712  0.38683404    -0.12000
C1537       C  0.11943044  0.68506508  0.39740421     0.01300
C1538       C  0.10557246  0.68017430  0.38522551    -0.24200
H1539       H  0.11516648  0.63731879  0.28142255     0.09300
H1540       H  0.12438641  0.65303802  0.32182965     0.12800
H1541       H  0.07542790  0.63980337  0.28280495     0.11600
H1542       H  0.07161553  0.65382266  0.31819987     0.12800
H1543       H  0.08002275  0.66999140  0.35880161     0.11800
H1544       H  0.13152774  0.66678979  0.35710467     0.08900
H1545       H  0.13921396  0.68350673  0.39605925     0.12100
H1546       H  0.09848526  0.68411059  0.39330513     0.14000
C1547       C  0.11272420  0.73908279  0.43500536    -0.01500
C1548       C  0.10385050  0.74131205  0.45400103    -0.09500
C1549       C  0.09639907  0.74860253  0.44594457    -0.18300
C1550       C  0.09746538  0.75381714  0.41830572     0.04000
C1551       C  0.10621852  0.75121990  0.39887296     0.18200
C1552       C  0.11391039  0.74411261  0.40744853    -0.19800
C1553       C  0.10706169  0.75553707  0.37092073    -0.21000
C1554       C  0.09923248  0.76221026  0.36172992    -0.19600
C1555       C  0.09072020  0.76513615  0.38043380     0.19600
C1556       C  0.08996684  0.76127846  0.40914339     0.01700
C1557       C  0.08185655  0.76519421  0.42745053    -0.14300
C1558       C  0.07457251  0.77234265  0.41751628    -0.12000
C1559       C  0.07497329  0.77568598  0.38906975     0.01300
C1560       C  0.08305532  0.77203834  0.37062599    -0.24200
H1561       H  0.10264614  0.73739286  0.47532270     0.09300
H1562       H  0.08967355  0.74972735  0.46172227     0.12800
H1563       H  0.12061398  0.74225733  0.39250161     0.11600
H1564       H  0.11365550  0.75354534  0.35595552     0.12800
H1565       H  0.09994932  0.76522771  0.33986781     0.11800
H1566       H  0.08111312  0.76310393  0.44962621     0.08900
H1567       H  0.06851299  0.77519799  0.43220897     0.12100
H1568       H  0.08359451  0.77480937  0.34864299     0.14000
C1569       C  0.91074650  0.75405062  0.12708020    -0.01500
C1570       C  0.90284462  0.74906611  0.15214728    -0.09500
C1571       C  0.88950222  0.74888799  0.15584210    -0.18300
C1572       C  0.88357722  0.75365203  0.13434799     0.04000
C1573       C  0.89188092  0.75904864  0.10925612     0.18200
C1574       C  0.90530330  0.75925447  0.10594128    -0.19800
C1575       C  0.88659607  0.76390078  0.08726668    -0.21000
C1576       C  0.87305742  0.76324311  0.08933751    -0.19600
C1577       C  0.86443750  0.75768012  0.11342456     0.19600
C1578       C  0.86960051  0.75295257  0.13646977     0.01700
C1579       C  0.86036951  0.74743389  0.16026837    -0.14300
C1580       C  0.84640514  0.74613949  0.16061935    -0.12000
C1581       C  0.84124716  0.75039847  0.13746816     0.01300
C1582       C  0.85047710  0.75647234  0.11422586    -0.24200
H1583       H  0.90682085  0.74496092  0.16878574     0.09300
H1584       H  0.88397900  0.74472765  0.17554071     0.12800
H1585       H  0.91133120  0.76310564  0.08644372     0.11600
H1586       H  0.89289364  0.76805323  0.06813374     0.12800
H1587       H  0.86919103  0.76690008  0.07175586     0.11800
H1588       H  0.86350381  0.74378623  0.17872620     0.08900
H1589       H  0.83950582  0.74152462  0.17891982     0.12100
H1590       H  0.84661097  0.75988519  0.09626329     0.14000
C1591       C  0.02322829  0.78673066  0.42553277    -0.01500
C1592       C  0.02304056  0.79753492  0.44249059    -0.09500
C1593       C  0.01368344  0.79364286  0.46573980    -0.18300
C1594       C  0.00426121  0.77872724  0.47286803     0.04000
C1595       C  0.00481898  0.76787121  0.45589174     0.18200
C1596       C  0.01407639  0.77193431  0.43242632    -0.19800
C1597       C  0.99622739  0.75298141  0.46250667    -0.21000
C1598       C  0.98704064  0.74856645  0.48569723    -0.19600
C1599       C  0.98554835  0.75849446  0.00281853     0.19600
C1600       C  0.99390038  0.77369555  0.99626249     0.01700
C1601       C  0.99181645  0.78360268  0.01320001    -0.14300
C1602       C  0.98192317  0.77857835  0.03570220    -0.12000
C1603       C  0.97396394  0.76360735  0.04220135     0.01300
C1604       C  0.97581038  0.75365966  0.02557610    -0.24200
H1605       H  0.03020485  0.80905738  0.43783906     0.09300
H1606       H  0.01300714  0.80200424  0.97653326     0.12800
H1607       H  0.01432997  0.76349406  0.41971738     0.11600
H1608       H  0.99668884  0.74467643  0.44973988     0.12800
H1609       H  0.98060490  0.73694687  0.49035709     0.11800
H1610       H  0.99762018  0.79527251  0.00952412     0.08900
H1611       H  0.98066147  0.78646110  0.04831524     0.12100
H1612       H  0.96958725  0.74203054  0.03033601     0.14000
C1613       C  0.97722000  0.76275833  0.17425696    -0.01500
C1614       C  0.98554705  0.77778592  0.18034103    -0.09500
C1615       C  0.99578761  0.78292481  0.20226574    -0.18300
C1616       C  0.99799832  0.77311245  0.21902852     0.04000
C1617       C  0.98970417  0.75788627  0.21236471     0.18200
C1618       C  0.97948473  0.75289013  0.19019513    -0.19800
C1619       C  0.99154006  0.74768947  0.22802719    -0.21000
C1620       C  0.00134319  0.75223966  0.25040194    -0.19600
C1621       C  0.00949905  0.76709626  0.25783316     0.19600
C1622       C  0.00798932  0.77778817  0.24228583     0.01700
C1623       C  0.01637317  0.79262555  0.25105045    -0.14300
C1624       C  0.02562970  0.79658379  0.27447964    -0.12000
C1625       C  0.02700958  0.78597580  0.28970845     0.01300
C1626       C  0.01902134  0.77127551  0.28104326    -0.24200
H1627       H  0.98409460  0.78564313  0.16815439     0.09300
H1628       H  0.00174548  0.79462698  0.20562621     0.12800
H1629       H  0.97314296  0.74123765  0.18555472     0.11600
H1630       H  0.98528622  0.73608065  0.22302152     0.12800
H1631       H  0.00244196  0.74404255  0.26217592     0.11800
H1632       H  0.01588872  0.80140678  0.24047411     0.08900
H1633       H  0.03174568  0.80802579  0.28070948     0.12100
H1634       H  0.01998194  0.76297932  0.29277353     0.14000
C1635       C  0.81830451  0.57695364  0.03621919    -0.01500
C1636       C  0.81359310  0.58081825  0.01189492    -0.09500
C1637       C  0.80017124  0.58067074  0.01130715    -0.18300
C1638       C  0.79103393  0.57670064  0.03527134     0.04000
C1639       C  0.79579493  0.57252206  0.05969771     0.18200
C1640       C  0.80925833  0.57265642  0.05991609    -0.19800
C1641       C  0.78717923  0.56836546  0.08394617    -0.21000
C1642       C  0.77386410  0.56822201  0.08455012    -0.19600
C1643       C  0.76887642  0.57232736  0.06098401     0.19600
C1644       C  0.77739060  0.57673128  0.03600466     0.01700
C1645       C  0.77189298  0.58106486  0.01305730    -0.14300
C1646       C  0.75846570  0.58087907  0.01487747    -0.12000
C1647       C  0.75011061  0.57636868  0.03949775     0.01300
C1648       C  0.75541174  0.57213122  0.06243015    -0.24200
H1649       H  0.82040980  0.58416460  0.99328959     0.09300
H1650       H  0.79730694  0.58379509  0.99186732     0.12800
H1651       H  0.81284208  0.56967814  0.07884914     0.11600
H1652       H  0.79076574  0.56519322  0.10261611     0.12800
H1653       H  0.76743712  0.56492204  0.10366422     0.11800
H1654       H  0.77774937  0.58475898  0.99352933     0.08900
H1655       H  0.75467302  0.58440390  0.99700093     0.12100
H1656       H  0.74909242  0.56879113  0.08168353     0.14000
C1657       C  0.87458403  0.56633250  0.10521225    -0.01500
C1658       C  0.88888208  0.57513110  0.11565233    -0.09500
C1659       C  0.89385221  0.57070492  0.13864901    -0.18300
C1660       C  0.88462653  0.55720050  0.15213155     0.04000
C1661       C  0.87026835  0.54805015  0.14093074     0.18200
C1662       C  0.86535020  0.55271636  0.11778959    -0.19800
C1663       C  0.86090434  0.53435314  0.15300491    -0.21000
C1664       C  0.86547992  0.52954689  0.17602286    -0.19600
C1665       C  0.87944353  0.53842034  0.18785958     0.19600
C1666       C  0.88915220  0.55245963  0.17625300     0.01700
C1667       C  0.90291497  0.56123715  0.18952297    -0.14300
C1668       C  0.90695648  0.55621079  0.21294090    -0.12000
C1669       C  0.89755850  0.54225223  0.22389797     0.01300
C1670       C  0.88377278  0.53338470  0.21131328    -0.24200
H1671       H  0.89626766  0.58565548  0.10620927     0.09300
H1672       H  0.90500760  0.57812513  0.14525891     0.12800
H1673       H  0.85429881  0.54578167  0.10967813     0.11600
H1674       H  0.84997025  0.52728183  0.14453260     0.12800
H1675       H  0.85798934  0.51886020  0.18477878     0.11800
H1676       H  0.91079905  0.57211762  0.18253015     0.08900
H1677       H  0.91765068  0.56328190  0.22233779     0.12100
H1678       H  0.87638295  0.52260895  0.21986546     0.14000
C1679       C  0.87247314  0.56768655  0.47158216    -0.01500
C1680       C  0.86258549  0.55417844  0.45927269    -0.09500
C1681       C  0.86668258  0.54899409  0.43591868    -0.18300
C1682       C  0.88092102  0.55721240  0.42408022     0.04000
C1683       C  0.89074469  0.57113213  0.43617961     0.18200
C1684       C  0.88648251  0.57617849  0.45969830    -0.19800
C1685       C  0.90482361  0.57990685  0.42489103    -0.21000
C1686       C  0.90950299  0.57505784  0.40209636    -0.19600
C1687       C  0.90029084  0.56123546  0.39021155     0.19600
C1688       C  0.88583250  0.55210867  0.40090271     0.01700
C1689       C  0.87706369  0.53818378  0.38821768    -0.14300
C1690       C  0.88248509  0.53351601  0.36609048    -0.12000
C1691       C  0.89677596  0.54250846  0.35586648     0.01300
C1692       C  0.90556798  0.55640822  0.36790151    -0.24200
H1693       H  0.85163062  0.54750740  0.46785986     0.09300
H1694       H  0.85846488  0.53850334  0.42768197     0.12800
H1695       H  0.89416477  0.58673029  0.46890656     0.11600
H1696       H  0.91231698  0.59057518  0.43387134     0.12800
H1697       H  0.92050452  0.58209130  0.39396114     0.11800
H1698       H  0.86603661  0.53056385  0.39511037     0.08900
H1699       H  0.87547924  0.52273096  0.35710669     0.12100
H1700       H  0.91662553  0.56347687  0.36001889     0.14000
C1701       C  0.91996976  0.70344193  0.09222982    -0.01500
C1702       C  0.91472352  0.69912019  0.06490542    -0.09500
C1703       C  0.90644172  0.68429222  0.05772849    -0.18300
C1704       C  0.90305037  0.67321592  0.07785426     0.04000
C1705       C  0.90807614  0.67768286  0.10577567     0.18200
C1706       C  0.91652690  0.69266870  0.11263328    -0.19800
C1707       C  0.90474081  0.66717142  0.12664455    -0.21000
C1708       C  0.89667771  0.65227325  0.12033689    -0.19600
C1709       C  0.89190608  0.64751560  0.09293294     0.19600
C1710       C  0.89500274  0.65790243  0.07125422     0.01700
C1711       C  0.89017683  0.65249026  0.04382113    -0.14300
C1712       C  0.88292558  0.63745649  0.03811294    -0.12000
C1713       C  0.88000982  0.62732434  0.05950688     0.01300
C1714       C  0.88430202  0.63240068  0.08696232    -0.24200
H1715       H  0.91719955  0.70726264  0.04880850     0.09300
H1716       H  0.90288356  0.68189313  0.03624728     0.12800
H1717       H  0.92044423  0.69595037  0.13390763     0.11600
H1718       H  0.90845794  0.67049662  0.14799095     0.12800
H1719       H  0.89434986  0.64441159  0.13694580     0.11800
H1720       H  0.89206476  0.65957011  0.02619043     0.08900
H1721       H  0.87960550  0.63373809  0.01677509     0.12100
H1722       H  0.88211037  0.62458203  0.10360841     0.14000
C1723       C  0.81979744  0.24327743  0.04362921    -0.01500
C1724       C  0.80900025  0.24071620  0.06362312    -0.09500
C1725       C  0.79534732  0.22773458  0.06309473    -0.18300
C1726       C  0.79212926  0.21677181  0.04258261     0.04000
C1727       C  0.80316441  0.21950456  0.02232465     0.18200
C1728       C  0.81671360  0.23269473  0.02284055    -0.19800
C1729       C  0.80077207  0.20892507  0.00199427    -0.21000
C1730       C  0.78771666  0.19552503  0.00155866    -0.19600
C1731       C  0.77663840  0.19243217  0.02122012     0.19600
C1732       C  0.77855098  0.20307727  0.04176996     0.01700
C1733       C  0.76684583  0.19943709  0.06074980    -0.14300
C1734       C  0.75407415  0.18563240  0.05999097    -0.12000
C1735       C  0.75249010  0.17503339  0.04030634     0.01300
C1736       C  0.76373159  0.17861664  0.02069199    -0.24200
H1737       H  0.81117962  0.24870788  0.07999630     0.09300
H1738       H  0.78767259  0.22648793  0.07934542     0.12800
H1739       H  0.82506905  0.23452898  0.00742959     0.11600
H1740       H  0.80916008  0.21094081  0.98654966     0.12800
H1741       H  0.78630913  0.18748035  0.98579842     0.11800
H1742       H  0.76726369  0.20696501  0.07656867     0.08900
H1743       H  0.74549780  0.18315620  0.07526155     0.12100
H1744       H  0.76258380  0.17050526  0.00529242     0.14000
C1745       C  0.90607143  0.15310022  0.14423489    -0.01500
C1746       C  0.89642128  0.14937645  0.16700420    -0.09500
C1747       C  0.88347284  0.13567428  0.16812897    -0.18300
C1748       C  0.87969908  0.12527303  0.14621408     0.04000
C1749       C  0.88981799  0.12899325  0.12366347     0.18200
C1750       C  0.90282980  0.14269399  0.12300522    -0.19800
C1751       C  0.88673719  0.11919283  0.10140587    -0.21000
C1752       C  0.87358848  0.10590163  0.10052965    -0.19600
C1753       C  0.86319141  0.10203170  0.12193792     0.19600
C1754       C  0.86614322  0.11151685  0.14536124     0.01700
C1755       C  0.85522496  0.10692787  0.16644270    -0.14300
C1756       C  0.84180880  0.09375294  0.16383006    -0.12000
C1757       C  0.83883485  0.08470541  0.14026939     0.01300
C1758       C  0.84969764  0.08882798  0.11965644    -0.24200
H1759       H  0.89874085  0.15719688  0.18378436     0.09300
H1760       H  0.87651075  0.13366301  0.18611973     0.12800
H1761       H  0.91026359  0.14542941  0.10536187     0.11600
H1762       H  0.89444632  0.12194810  0.08424220     0.12800
H1763       H  0.87143810  0.09868462  0.08272024     0.11800
H1764       H  0.85663540  0.11337481  0.18498180     0.08900
H1765       H  0.83360409  0.09077855  0.18011402     0.12100
H1766       H  0.84753032  0.08187293  0.10140337     0.14000
C1767       C  0.91985426  0.21727843  0.11193499    -0.01500
C1768       C  0.92121082  0.22880652  0.12880434    -0.09500
C1769       C  0.91479950  0.23712492  0.12087546    -0.18300
C1770       C  0.90664427  0.23409101  0.09571867     0.04000
C1771       C  0.90484966  0.22204889  0.07912123     0.18200
C1772       C  0.91165774  0.21396570  0.08705477    -0.19800
C1773       C  0.89613665  0.21805553  0.05489549    -0.21000
C1774       C  0.88898723  0.22564030  0.04699903    -0.19600
C1775       C  0.89085066  0.23778304  0.06248925     0.19600
C1776       C  0.90002238  0.24241772  0.08667892     0.01700
C1777       C  0.90232835  0.25530668  0.10053617    -0.14300
C1778       C  0.89548818  0.26299831  0.09124171    -0.12000
C1779       C  0.88598208  0.25804527  0.06813924     0.01300
C1780       C  0.88368976  0.24541073  0.05382989    -0.24200
H1781       H  0.92739119  0.23151766  0.14821187     0.09300
H1782       H  0.91621916  0.24569997  0.13514473     0.12800
H1783       H  0.91043159  0.20496953  0.07397847     0.11600
H1784       H  0.89464446  0.20884425  0.04220345     0.12800
H1785       H  0.88211224  0.22210534  0.02841468     0.11800
H1786       H  0.90952897  0.25985760  0.11838726     0.08900
H1787       H  0.89744234  0.27275220  0.10258853     0.12100
H1788       H  0.87642888  0.24158656  0.03576849     0.14000
C1789       C  0.24240829  0.42012567  0.45216660    -0.01500
C1790       C  0.23981694  0.42781224  0.43115436    -0.09500
C1791       C  0.22683117  0.42852271  0.43082757    -0.18300
C1792       C  0.21579859  0.42130610  0.45141335     0.04000
C1793       C  0.21844172  0.41342062  0.47260892     0.18200
C1794       C  0.23170050  0.41304699  0.47297814    -0.19800
C1795       C  0.20774325  0.40576505  0.49307287    -0.21000
C1796       C  0.19438857  0.40563313  0.49282516    -0.19600
C1797       C  0.19141978  0.41326481  0.47225792     0.19600
C1798       C  0.20214486  0.42137093  0.45143675     0.01700
C1799       C  0.19863755  0.42903940  0.43138978    -0.14300
C1800       C  0.18490953  0.42824792  0.43142103    -0.12000
C1801       C  0.17423660  0.41992123  0.45147114     0.01300
C1802       C  0.17766733  0.41263681  0.47212267    -0.24200
H1803       H  0.24789547  0.43332545  0.41481010     0.09300
H1804       H  0.22567651  0.43462942  0.41391833     0.12800
H1805       H  0.23352812  0.40691084  0.48914599     0.11600
H1806       H  0.20965221  0.39969158  0.50923653     0.12800
H1807       H  0.18628615  0.39944887  0.50878310     0.11800
H1808       H  0.20621363  0.43565614  0.41523352     0.08900
H1809       H  0.18256549  0.43404123  0.41534850     0.12100
H1810       H  0.16948424  0.40616713  0.48777437     0.14000
C1811       C  0.08708032  0.24094740  0.37514659    -0.01500
C1812       C  0.09558052  0.24496919  0.35071064    -0.09500
C1813       C  0.10866100  0.24448581  0.34945479    -0.18300
C1814       C  0.11372901  0.24005319  0.37288818     0.04000
C1815       C  0.10498423  0.23593441  0.39759111     0.18200
C1816       C  0.09178123  0.23630133  0.39840327    -0.19800
C1817       C  0.10959158  0.23175386  0.42159425    -0.21000
C1818       C  0.12287527  0.23182191  0.42183699    -0.19600
C1819       C  0.13182272  0.23597740  0.39802227     0.19600
C1820       C  0.12731167  0.23992220  0.37301120     0.01700
C1821       C  0.13674658  0.24382258  0.34946790    -0.14300
C1822       C  0.15041199  0.24453770  0.35126125    -0.12000
C1823       C  0.15500492  0.24124982  0.37635391     0.01300
C1824       C  0.14548245  0.23658921  0.39939010    -0.24200
H1825       H  0.09220313  0.24869234  0.33252452     0.09300
H1826       H  0.11465842  0.24789234  0.33005580     0.12800
H1827       H  0.08533063  0.23330738  0.41749557     0.11600
H1828       H  0.10297660  0.22861906  0.44047379     0.12800
H1829       H  0.12625720  0.22876467  0.44091550     0.11800
H1830       H  0.13401172  0.24660905  0.32955706     0.08900
H1831       H  0.15755359  0.24801347  0.33309909     0.12100
H1832       H  0.14892716  0.23391929  0.41885096     0.14000
C1833       C  0.97146970  0.20666896  0.06860879    -0.01500
C1834       C  0.97758413  0.19808756  0.06023819    -0.09500
C1835       C  0.98692671  0.20206437  0.03696150    -0.18300
C1836       C  0.99026145  0.21471355  0.02107405     0.04000
C1837       C  0.98397867  0.22333199  0.02982921     0.18200
C1838       C  0.97481217  0.21931383  0.05339911    -0.19800
C1839       C  0.98677447  0.23589487  0.01493874    -0.21000
C1840       C  0.00151001  0.24247769  0.49386473    -0.19600
C1841       C  0.00662160  0.23351632  0.48280290     0.19600
C1842       C  0.00230218  0.21959496  0.49490741     0.01700
C1843       C  0.00805384  0.21115682  0.48294753    -0.14300
C1844       C  0.01760661  0.21633885  0.45992941    -0.12000
C1845       C  0.02165354  0.23000133  0.44804965     0.01300
C1846       C  0.01609599  0.23849543  0.45964979    -0.24200
H1847       H  0.97516579  0.18828006  0.07176831     0.09300
H1848       H  0.99127707  0.19497894  0.03184796     0.12800
H1849       H  0.97004085  0.22596750  0.05965893     0.11600
H1850       H  0.98197310  0.24246866  0.02151600     0.12800
H1851       H  0.00480929  0.25310932  0.48476195     0.11800
H1852       H  0.00543462  0.20056463  0.49099848     0.08900
H1853       H  0.02184663  0.20962100  0.45140719     0.12100
H1854       H  0.01925907  0.24914522  0.45075403     0.14000
C1855       C  0.97047244  0.20877428  0.20269791    -0.01500
C1856       C  0.97564147  0.22285979  0.21377964    -0.09500
C1857       C  0.98583019  0.22812590  0.23573943    -0.18300
C1858       C  0.99122026  0.21938617  0.24754521     0.04000
C1859       C  0.98589979  0.20505779  0.23631501     0.18200
C1860       C  0.97563327  0.19990317  0.21413292    -0.19800
C1861       C  0.99092078  0.19598385  0.24717727    -0.21000
C1862       C  0.00116714  0.20083616  0.26890973    -0.19600
C1863       C  0.00661717  0.21486890  0.28047807     0.19600
C1864       C  0.00170113  0.22434739  0.27000724     0.01700
C1865       C  0.00746760  0.23836823  0.28254823    -0.14300
C1866       C  0.01761464  0.24274115  0.30450030    -0.12000
C1867       C  0.02241404  0.23338846  0.31481835     0.01300
C1868       C  0.01690102  0.21945275  0.30261683    -0.24200
H1869       H  0.97189142  0.22996599  0.20524590     0.09300
H1870       H  0.98929395  0.23909222  0.24285294     0.12800
H1871       H  0.97170589  0.18898581  0.20568356     0.11600
H1872       H  0.98692113  0.18505175  0.23874934     0.12800
H1873       H  0.00483066  0.19353345  0.27677142     0.11800
H1874       H  0.00433028  0.24620222  0.27603262     0.08900
H1875       H  0.02166071  0.25354747  0.31358163     0.12100
H1876       H  0.02053327  0.21212200  0.31047019     0.14000
C1877       C  0.07607973  0.29166508  0.40178787    -0.01500
C1878       C  0.07835432  0.29628317  0.42978878    -0.09500
C1879       C  0.08571459  0.31120910  0.43662489    -0.18300
C1880       C  0.09109105  0.32206308  0.41550343     0.04000
C1881       C  0.08904060  0.31726906  0.38711789     0.18200
C1882       C  0.08159216  0.30222494  0.38057501    -0.19800
C1883       C  0.09428264  0.32750704  0.36536198    -0.21000
C1884       C  0.10141739  0.34245909  0.37110932    -0.19600
C1885       C  0.10342378  0.34755232  0.39875562     0.19600
C1886       C  0.09830709  0.33746058  0.42141936     0.01700
C1887       C  0.10048666  0.34325721  0.44892322    -0.14300
C1888       C  0.10732452  0.35838838  0.45361368    -0.12000
C1889       C  0.11234161  0.36822749  0.43117565     0.01300
C1890       C  0.11042529  0.36272706  0.40381984    -0.24200
H1891       H  0.07422396  0.28830713  0.44655519     0.09300
H1892       H  0.08694099  0.31387791  0.45862827     0.12800
H1893       H  0.07994787  0.29872833  0.35884101     0.11600
H1894       H  0.09279067  0.32392054  0.34370451     0.12800
H1895       H  0.10529377  0.35010224  0.35376532     0.11800
H1896       H  0.09692222  0.33639799  0.46726074     0.08900
H1897       H  0.10871595  0.36240950  0.47494403     0.12100
H1898       H  0.11421545  0.37028548  0.38632068     0.14000
C1899       C  0.90585256  0.41931663  0.31172877    -0.01500
C1900       C  0.91439965  0.43040059  0.33104481    -0.09500
C1901       C  0.91373404  0.44334574  0.33224207    -0.18300
C1902       C  0.90456187  0.44571721  0.31375944     0.04000
C1903       C  0.89556617  0.43422683  0.29479997     0.18200
C1904       C  0.89615816  0.42115444  0.29419578    -0.19800
C1905       C  0.88643572  0.43605404  0.27579410    -0.21000
C1906       C  0.88652751  0.44930874  0.27429057    -0.19600
C1907       C  0.89560505  0.46101435  0.29201692     0.19600
C1908       C  0.90441709  0.45924966  0.31260551     0.01700
C1909       C  0.91300034  0.47126290  0.33059981    -0.14300
C1910       C  0.91344573  0.48466343  0.32723964    -0.12000
C1911       C  0.90541249  0.48660567  0.30591498     0.01300
C1912       C  0.89622935  0.47461981  0.28876898    -0.24200
H1913       H  0.92194682  0.42923309  0.34487350     0.09300
H1914       H  0.92087064  0.45144704  0.34727524     0.12800
H1915       H  0.88949533  0.41263829  0.27916277     0.11600
H1916       H  0.87947714  0.42730549  0.26141511     0.12800
H1917       H  0.87963934  0.45049623  0.25879461     0.11800
H1918       H  0.91965920  0.47073910  0.34723010     0.08900
H1919       H  0.92050328  0.49371161  0.34096044     0.12100
H1920       H  0.88981691  0.47597097  0.27244182     0.14000
C1921       C  0.89222103  0.35324612  0.23630656    -0.01500
C1922       C  0.88591498  0.35633831  0.21339256    -0.09500
C1923       C  0.88016228  0.34658123  0.19084720    -0.18300
C1924       C  0.88051186  0.33330123  0.19054225     0.04000
C1925       C  0.88650806  0.33000964  0.21432646     0.18200
C1926       C  0.89229722  0.33995958  0.23681797    -0.19800
C1927       C  0.88696905  0.31694518  0.21529996    -0.21000
C1928       C  0.88199296  0.30723594  0.19278506    -0.19600
C1929       C  0.87649227  0.31037965  0.16868709     0.19600
C1930       C  0.87546679  0.32334830  0.16730057     0.01700
C1931       C  0.86981247  0.32595208  0.14239306    -0.14300
C1932       C  0.86599413  0.31643444  0.11946701    -0.12000
C1933       C  0.86747418  0.30394269  0.12069847     0.01300
C1934       C  0.87239937  0.30080449  0.14562270    -0.24200
H1935       H  0.88571536  0.36653198  0.21257129     0.09300
H1936       H  0.87569128  0.34985436  0.17385623     0.12800
H1937       H  0.89708886  0.33744721  0.25458903     0.11600
H1938       H  0.89141763  0.31431736  0.23344550     0.12800
H1939       H  0.88271910  0.29732460  0.19402053     0.11800
H1940       H  0.86849955  0.33539876  0.13970570     0.08900
H1941       H  0.86210822  0.31901862  0.10048829     0.12100
H1942       H  0.87355704  0.29113000  0.14677226     0.14000
C1943       C  0.90080777  0.35668751  0.36671861    -0.01500
C1944       C  0.91066308  0.35275076  0.37811314    -0.09500
C1945       C  0.90642142  0.34276092  0.40016412    -0.18300
C1946       C  0.89206668  0.33632728  0.41162045     0.04000
C1947       C  0.88204120  0.34020159  0.39963389     0.18200
C1948       C  0.88648112  0.35029825  0.37749002    -0.19800
C1949       C  0.86763351  0.33400211  0.40983944    -0.21000
C1950       C  0.86296681  0.32413587  0.43195559    -0.19600
C1951       C  0.87259824  0.32024202  0.44450007     0.19600
C1952       C  0.88729259  0.32624443  0.43452560     0.01700
C1953       C  0.89656212  0.32197066  0.44811861    -0.14300
C1954       C  0.89145178  0.31220976  0.47062869    -0.12000
C1955       C  0.87698566  0.30637531  0.48038083     0.01300
C1956       C  0.86761271  0.31042259  0.46713624    -0.24200
H1957       H  0.92175081  0.35741302  0.36991724     0.09300
H1958       H  0.91463496  0.34029813  0.40772148     0.12800
H1959       H  0.87872740  0.35315338  0.36855935     0.11600
H1960       H  0.85991905  0.33684663  0.40070793     0.12800
H1961       H  0.85174888  0.31957942  0.43942193     0.11800
H1962       H  0.90785071  0.32603955  0.44200570     0.08900
H1963       H  0.89931743  0.30912465  0.98127143     0.12100
H1964       H  0.85639860  0.30598447  0.47457844     0.14000
C1965       C  0.08171207  0.50567288  0.19274412    -0.01500
C1966       C  0.09183420  0.51649897  0.21092996    -0.09500
C1967       C  0.09323246  0.53043216  0.21196812    -0.18300
C1968       C  0.08437327  0.53393849  0.19492112     0.04000
C1969       C  0.07429276  0.52294094  0.17618990     0.18200
C1970       C  0.07308917  0.50903617  0.17525019    -0.19800
C1971       C  0.06528102  0.52577925  0.15875871    -0.21000
C1972       C  0.06583742  0.53924174  0.15982481    -0.19600
C1973       C  0.07533327  0.55016620  0.17851106     0.19600
C1974       C  0.08487322  0.54778191  0.19616274     0.01700
C1975       C  0.09417606  0.55922781  0.21473528    -0.14300
C1976       C  0.09352100  0.57216896  0.21651542    -0.12000
C1977       C  0.08377314  0.57421706  0.19962633     0.01300
C1978       C  0.07499230  0.56331758  0.18019354    -0.24200
H1979       H  0.09863301  0.51414974  0.22463204     0.09300
H1980       H  0.10122502  0.53815033  0.22654685     0.12800
H1981       H  0.06516301  0.50068852  0.16121953     0.11600
H1982       H  0.05761835  0.51745905  0.14438395     0.12800
H1983       H  0.05857965  0.54102327  0.14627353     0.11800
H1984       H  0.10184713  0.55839756  0.22858565     0.08900
H1985       H  0.10051032  0.58051189  0.23152743     0.12100
H1986       H  0.06744747  0.56483997  0.16696604     0.14000
C1987       C  0.09080500  0.44841515  0.25854029    -0.01500
C1988       C  0.08266823  0.43390414  0.26792719    -0.09500
C1989       C  0.08758209  0.42907272  0.29049668    -0.18300
C1990       C  0.10091326  0.43866546  0.30454088     0.04000
C1991       C  0.10929731  0.45330158  0.29451763     0.18200
C1992       C  0.10418406  0.45802509  0.27180380    -0.19800
C1993       C  0.12268480  0.46317691  0.30735976    -0.21000
C1994       C  0.12792634  0.45887293  0.33009333    -0.19600
C1995       C  0.11985018  0.44461741  0.34077566     0.19600
C1996       C  0.10619427  0.43430961  0.32819038     0.01700
C1997       C  0.09834561  0.42014180  0.34005772    -0.14300
C1998       C  0.10377001  0.41640438  0.36337955    -0.12000
C1999       C  0.11722495  0.42654058  0.37568917     0.01300
C2000       C  0.12528136  0.44063152  0.36415353    -0.24200
H2001       H  0.07231803  0.42625240  0.25798028     0.09300
H2002       H  0.08065017  0.41776316  0.29644656     0.12800
H2003       H  0.11059022  0.46926831  0.26459537     0.11600
H2004       H  0.12915090  0.47433734  0.29978595     0.12800
H2005       H  0.13832516  0.46680230  0.33954399     0.11800
H2006       H  0.08789470  0.41169740  0.33199521     0.08900
H2007       H  0.09734862  0.40542724  0.37181097     0.12100
H2008       H  0.13570059  0.44856011  0.37356701     0.14000
C2009       C  0.08934455  0.45117157  0.12561964    -0.01500
C2010       C  0.10408082  0.45976682  0.11738107    -0.09500
C2011       C  0.10975256  0.45539088  0.09522467    -0.18300
C2012       C  0.10079541  0.44217757  0.08038747     0.04000
C2013       C  0.08582714  0.43348704  0.08883587     0.18200
C2014       C  0.08027250  0.43803693  0.11118920    -0.19800
C2015       C  0.07649211  0.42026604  0.07500898    -0.21000
C2016       C  0.08167284  0.41546551  0.05289593    -0.19600
C2017       C  0.09631460  0.42378263  0.04394843     0.19600
C2018       C  0.10611356  0.43726965  0.05752486     0.01700
C2019       C  0.12077359  0.44525621  0.04749636    -0.14300
C2020       C  0.12544444  0.44009937  0.02494468    -0.12000
C2021       C  0.11574739  0.42682789  0.01166292     0.01300
C2022       C  0.10119595  0.41869887  0.02136729    -0.24200
H2023       H  0.11134702  0.46990489  0.12831251     0.09300
H2024       H  0.12121132  0.46257593  0.09033002     0.12800
H2025       H  0.06886118  0.43126570  0.11748602     0.11600
H2026       H  0.06508438  0.41357346  0.08135437     0.12800
H2027       H  0.07414559  0.40517868  0.04265005     0.11800
H2028       H  0.12890168  0.45556259  0.05652901     0.08900
H2029       H  0.13674441  0.44656136  0.01787335     0.12100
H2030       H  0.09689198  0.40922839  0.51391210     0.14000
C2031       C  0.95612308  0.40633571  0.26782866    -0.01500
C2032       C  0.95867046  0.40637123  0.23903998    -0.09500
C2033       C  0.97299998  0.41368928  0.22836358    -0.18300
C2034       C  0.98531313  0.42139640  0.24626984     0.04000
C2035       C  0.98262026  0.42121719  0.27552309     0.18200
C2036       C  0.96816082  0.41366049  0.28597149    -0.19800
C2037       C  0.99436251  0.42865509  0.29422531    -0.21000
C2038       C  0.00878048  0.43630929  0.28456163    -0.19600
C2039       C  0.01183100  0.43665512  0.25596449     0.19600
C2040       C  0.00017464  0.42924775  0.23631596     0.01700
C2041       C  0.00396027  0.42999659  0.20765287    -0.14300
C2042       C  0.01869782  0.43741721  0.19907706    -0.12000
C2043       C  0.03009951  0.44439992  0.21866441     0.01300
C2044       C  0.02655102  0.44419863  0.24699666    -0.24200
H2045       H  0.94952099  0.40065998  0.22464437     0.09300
H2046       H  0.97405218  0.41315790  0.20601200     0.12800
H2047       H  0.96626466  0.41365253  0.30829995     0.11600
H2048       H  0.99238131  0.42856751  0.31652057     0.12800
H2049       H  0.01763027  0.44193542  0.29961370     0.11800
H2050       H  0.99581743  0.42482313  0.19138306     0.08900
H2051       H  0.02118146  0.43751760  0.17703186     0.12100
H2052       H  0.03531426  0.44963348  0.26230170     0.14000
In2053     In  0.07456196  0.46340248  0.69490968     1.36900
C2054       C  0.04621006  0.45114261  0.70898319     0.77400
O2055       O  0.07409784  0.44546632  0.72108033    -0.61100
O2056       O  0.09172231  0.46712294  0.72741454    -0.52000
C2057       C  0.08464010  0.45687514  0.64858821     0.70000
O2058       O  0.07180172  0.44884127  0.65792643    -0.46800
C2059       C  0.08017227  0.49104662  0.69268901     0.74700
O2060       O  0.05027062  0.45020340  0.68454130    -0.58700
O2061       O  0.08550880  0.48656168  0.71125627    -0.48800
O2062       O  0.05664666  0.45854702  0.72574472    -0.55100
C2063       C  0.08559702  0.45385244  0.73473395     0.84900
O2064       O  0.09221579  0.46845850  0.66257827    -0.57000
O2065       O  0.07239930  0.48148953  0.67464330    -0.60300
In2066     In  0.91387043  0.38404702  0.79764833     1.36900
C2067       C  0.94154728  0.39842521  0.77868616     0.77400
O2068       O  0.90808861  0.36287717  0.77591611    -0.61100
O2069       O  0.89933251  0.37564356  0.75951104    -0.52000
C2070       C  0.90583140  0.36633130  0.84211604     0.70000
O2071       O  0.91844802  0.37194156  0.83123047    -0.46800
C2072       C  0.90849972  0.40609918  0.80683130     0.74700
O2073       O  0.93852579  0.39612856  0.80436721    -0.58700
O2074       O  0.90061625  0.39538532  0.79099057    -0.48800
O2075       O  0.93043924  0.39353407  0.76294385    -0.55100
C2076       C  0.90030881  0.36419569  0.75727710     0.84900
O2077       O  0.89744531  0.37025791  0.83088458    -0.57000
O2078       O  0.91858623  0.40508511  0.81917965    -0.60300
In2079     In  0.04822212  0.24597158  0.88397228     1.36900
C2080       C  0.06425560  0.27439518  0.89623572     0.77400
O2081       O  0.03189485  0.24662814  0.91330342    -0.61100
O2082       O  0.03482054  0.22809944  0.91508914    -0.52000
C2083       C  0.03017019  0.23713328  0.83981926     0.70000
O2084       O  0.03604089  0.24992615  0.84983843    -0.46800
C2085       C  0.07051173  0.24061996  0.87841341     0.74700
O2086       O  0.06036822  0.26972375  0.87157689    -0.58700
O2087       O  0.06279549  0.23762555  0.90025431    -0.48800
O2088       O  0.06016697  0.26448895  0.91447018    -0.55100
C2089       C  0.02843608  0.23461176  0.92500949     0.84900
O2090       O  0.03358684  0.22871895  0.85240837    -0.57000
O2091       O  0.06640391  0.24577027  0.85886907    -0.60300
In2092     In  0.12975502  0.41148315  0.94470829     1.36900
C2093       C  0.11751377  0.38271356  0.93699905     0.77400
O2094       O  0.11370396  0.40849889  0.91091970    -0.61100
O2095       O  0.13337153  0.42903889  0.91285650    -0.52000
C2096       C  0.12303934  0.42350309  0.48719230     0.70000
O2097       O  0.13542501  0.43088501  0.47555540    -0.46800
C2098       C  0.15743086  0.41681964  0.95070538     0.74700
O2099       O  0.11657524  0.38826095  0.95985123    -0.58700
O2100       O  0.15334690  0.42159354  0.93042155    -0.48800
O2101       O  0.12493508  0.39194609  0.91833882    -0.55100
C2102       C  0.12131274  0.42103868  0.90035337     0.84900
O2103       O  0.11267026  0.40931477  0.97592371    -0.57000
O2104       O  0.14748970  0.40984818  0.96854263    -0.60300
In2105     In  0.94293933  0.19551150  0.63006711     1.36900
C2106       C  0.92841014  0.20940928  0.61606478     0.77400
O2107       O  0.95959594  0.21134598  0.60000377    -0.61100
O2108       O  0.95554606  0.18954210  0.59885543    -0.52000
C2109       C  0.96068644  0.20410989  0.67499529     0.70000
O2110       O  0.95627440  0.21195807  0.66347634    -0.46800
C2111       C  0.91994133  0.16849532  0.63798794     0.74700
O2112       O  0.93394044  0.21038469  0.63997222    -0.58700
O2113       O  0.92877873  0.17176040  0.61778991    -0.48800
O2114       O  0.92989772  0.20088356  0.59944420    -0.55100
C2115       C  0.96246093  0.20226501  0.58857360     0.84900
O2116       O  0.95597768  0.19173383  0.66355927    -0.57000
O2117       O  0.92303669  0.17902710  0.65451363    -0.60300
In2118     In  0.86240769  0.27852300  0.54919208     1.36900
C2119       C  0.87926074  0.26666364  0.55907276     0.77400
O2120       O  0.86481713  0.28258043  0.59531056    -0.61100
O2121       O  0.86289879  0.29808733  0.57003782    -0.52000
C2122       C  0.87212924  0.29655166  0.00554683     0.70000
O2123       O  0.85896679  0.29103444  0.51459696    -0.46800
C2124       C  0.83497826  0.25568602  0.54551193     0.74700
O2125       O  0.88192564  0.27879688  0.56939574    -0.58700
O2126       O  0.83911488  0.26492964  0.56515417    -0.48800
O2127       O  0.86847008  0.26101416  0.54241469    -0.55100
C2128       C  0.86473431  0.29451120  0.59428270     0.84900
O2129       O  0.87973649  0.29235000  0.51733905    -0.57000
O2130       O  0.84470365  0.25848654  0.52727053    -0.60300
In2131     In  0.86076637  0.58272718  0.54207539     1.36900
C2132       C  0.87355878  0.61126327  0.55362537     0.77400
O2133       O  0.84324965  0.58464501  0.51862469    -0.61100
O2134       O  0.83775117  0.57411517  0.55811842    -0.52000
C2135       C  0.86824061  0.57293198  0.49680095     0.70000
O2136       O  0.87678890  0.58501677  0.50849440    -0.46800
C2137       C  0.86890757  0.57120847  0.58319669     0.74700
O2138       O  0.87329840  0.60638763  0.52933802    -0.58700
O2139       O  0.85593038  0.56475109  0.57356411    -0.48800
O2140       O  0.86723474  0.60150676  0.57199867    -0.55100
C2141       C  0.83364087  0.57860298  0.53742307     0.84900
O2142       O  0.85583571  0.56573672  0.50848091    -0.57000
O2143       O  0.87755145  0.58307189  0.57107156    -0.60300
In2144     In  0.94635284  0.74763558  0.61026168     1.36900
C2145       C  0.92979258  0.71906568  0.59929373     0.77400
O2146       O  0.92942466  0.74817827  0.63857972    -0.61100
O2147       O  0.93073265  0.75529444  0.59678757    -0.52000
C2148       C  0.96614209  0.75759397  0.65175744     0.70000
O2149       O  0.95927211  0.74432432  0.64412857    -0.46800
C2150       C  0.96469887  0.75842979  0.56687979     0.74700
O2151       O  0.93616571  0.72382250  0.62258155    -0.58700
O2152       O  0.96026267  0.74582555  0.57681706    -0.48800
O2153       O  0.93189032  0.72894042  0.58196214    -0.55100
C2154       C  0.92414128  0.75266935  0.61994173     0.84900
O2155       O  0.96279082  0.76579367  0.63821783    -0.57000
O2156       O  0.95984667  0.76574305  0.57938958    -0.60300
In2157     In  0.13447959  0.71684556  0.96090228     1.36900
C2158       C  0.12204288  0.73243863  0.94496109     0.77400
O2159       O  0.15166373  0.73692855  0.98360598    -0.61100
O2160       O  0.15836992  0.72949189  0.94833535    -0.52000
C2161       C  0.12651136  0.70015572  0.50686887     0.70000
O2162       O  0.11977269  0.70590931  0.99797965    -0.46800
C2163       C  0.12534729  0.69633510  0.92107624     0.74700
O2164       O  0.12027844  0.72682560  0.96898039    -0.58700
O2165       O  0.13852612  0.70318367  0.92951848    -0.48800
O2166       O  0.13038348  0.73022008  0.92909900    -0.55100
C2167       C  0.16204106  0.73899664  0.96744110     0.84900
O2168       O  0.13806709  0.70286079  0.99219794    -0.57000
O2169       O  0.11690252  0.69982474  0.93339680    -0.60300
In2170     In  0.05307767  0.79655890  0.86162716     1.36900
C2171       C  0.06772314  0.78340718  0.87968916     0.77400
O2172       O  0.07413772  0.81242449  0.83990894    -0.61100
O2173       O  0.06641505  0.82050277  0.87260667    -0.52000
C2174       C  0.03628830  0.78955040  0.81555778     0.70000
O2175       O  0.03976737  0.78091187  0.82696342    -0.46800
C2176       C  0.03323207  0.79002034  0.90200230     0.74700
O2177       O  0.06530903  0.78424722  0.85407317    -0.58700
O2178       O  0.04279225  0.80309338  0.89617037    -0.48800
O2179       O  0.06250161  0.78912908  0.89586667    -0.55100
C2180       C  0.07637873  0.82325817  0.85483286     0.84900
O2181       O  0.04143937  0.80180181  0.82770842    -0.57000
O2182       O  0.03349485  0.78046466  0.88632782    -0.60300
In2183     In  0.91310262  0.52840922  0.79121088     1.36900
C2184       C  0.94161125  0.54081837  0.77755903     0.77400
O2185       O  0.91487621  0.51166783  0.81728049    -0.61100
O2186       O  0.90326361  0.50462212  0.77883689    -0.52000
C2187       C  0.90244255  0.53722007  0.83328709     0.70000
O2188       O  0.91553182  0.54458324  0.82468267    -0.46800
C2189       C  0.90226373  0.53652519  0.74904648     0.74700
O2190       O  0.93736625  0.54132216  0.80209217    -0.58700
O2191       O  0.89598408  0.52340787  0.75753012    -0.48800
O2192       O  0.93126577  0.53365053  0.76044904    -0.55100
C2193       C  0.90801452  0.50125293  0.80018408     0.84900
O2194       O  0.89488423  0.52511699  0.82081725    -0.57000
O2195       O  0.91371672  0.54522114  0.76247977    -0.60300
In2196     In  0.07792311  0.61023809  0.71148756     1.36900
C2197       C  0.04910147  0.59547615  0.72337511     0.77400
O2198       O  0.07363459  0.58968690  0.68903932    -0.61100
O2199       O  0.08854031  0.59687288  0.72320142    -0.52000
C2200       C  0.08927660  0.62939567  0.66890445     0.70000
O2201       O  0.07703690  0.62575451  0.68004033    -0.46800
C2202       C  0.08947941  0.62797833  0.75541648     0.74700
O2203       O  0.05392849  0.59859171  0.69864553    -0.58700
O2204       O  0.09464565  0.62016273  0.74643229    -0.48800
O2205       O  0.05902432  0.59969775  0.74180113    -0.55100
C2206       C  0.08200713  0.58731993  0.70440727     0.84900
O2207       O  0.09566771  0.62305978  0.67926052    -0.57000
O2208       O  0.07878469  0.62691913  0.74143625    -0.60300
In2209     In  0.60821501  0.52679942  0.79529599     1.36900
C2210       C  0.59678824  0.54418808  0.78708967     0.77400
O2211       O  0.62780771  0.52694698  0.77479850    -0.61100
O2212       O  0.61194998  0.52831067  0.74929201    -0.52000
C2213       C  0.62630880  0.53637502  0.83911448     0.70000
O2214       O  0.62372500  0.54472719  0.82429196    -0.46800
C2215       C  0.58547622  0.49961941  0.80106451     0.74700
O2216       O  0.59122137  0.53356401  0.80390939    -0.58700
O2217       O  0.59343246  0.50375954  0.77945540    -0.48800
O2218       O  0.60837968  0.54612544  0.77534800    -0.55100
C2219       C  0.62408665  0.52853894  0.75047691     0.84900
O2220       O  0.61976690  0.52316450  0.83122550    -0.57000
O2221       O  0.58932595  0.50932559  0.81974704    -0.60300
In2222     In  0.53169420  0.61231794  0.70707368     1.36900
C2223       C  0.54674989  0.59985979  0.72660984     0.77400
O2224       O  0.54589639  0.63412369  0.72818055    -0.61100
O2225       O  0.52487781  0.61985327  0.74542283    -0.52000
C2226       C  0.53862140  0.62883066  0.66100500     0.70000
O2227       O  0.54702788  0.62480506  0.67169240    -0.46800
C2228       C  0.50510140  0.58897587  0.69780929     0.74700
O2229       O  0.54830058  0.60474726  0.70202108    -0.58700
O2230       O  0.50713546  0.59984044  0.71239932    -0.48800
O2231       O  0.53751878  0.60135419  0.74102756    -0.55100
C2232       C  0.53671415  0.63195899  0.74723671     0.84900
O2233       O  0.52643527  0.62399848  0.67341423    -0.57000
O2234       O  0.51666591  0.59034102  0.68675336    -0.60300
In2235     In  0.71322875  0.57966524  0.54821883     1.36900
C2236       C  0.72716801  0.60754469  0.56566861     0.77400
O2237       O  0.69300785  0.57503889  0.57230731    -0.61100
O2238       O  0.70320207  0.56241643  0.58147350    -0.52000
C2239       C  0.69588592  0.57007181  0.50328559     0.70000
O2240       O  0.70167843  0.58305067  0.51240029    -0.46800
C2241       C  0.73680279  0.57676766  0.54042385     0.74700
O2242       O  0.72366026  0.60397031  0.54044559    -0.58700
O2243       O  0.73257655  0.58262405  0.52248032    -0.48800
O2244       O  0.72325896  0.59685003  0.58194472    -0.55100
C2245       C  0.69295252  0.56503944  0.58695484     0.84900
O2246       O  0.69922506  0.56188235  0.51693417    -0.57000
O2247       O  0.72852749  0.57177741  0.56145655    -0.60300
In2248     In  0.79853719  0.74239548  0.63223535     1.36900
C2249       C  0.78494852  0.71360039  0.62390645     0.77400
O2250       O  0.78238060  0.74099662  0.60004370    -0.61100
O2251       O  0.80308176  0.76060265  0.60209044    -0.52000
C2252       C  0.79124717  0.75345920  0.67549321     0.70000
O2253       O  0.78194711  0.74254406  0.66160037    -0.46800
C2254       C  0.82620721  0.74782364  0.63385993     0.74700
O2255       O  0.78554152  0.71896401  0.64790251    -0.58700
O2256       O  0.82106099  0.75150684  0.61357298    -0.48800
O2257       O  0.79176209  0.72296698  0.60515360    -0.55100
C2258       C  0.79073156  0.75353836  0.59003715     0.84900
O2259       O  0.80437714  0.75861983  0.66753080    -0.57000
O2260       O  0.81720495  0.74154294  0.65357900    -0.60300
In2261     In  0.74557086  0.79530227  0.88307285     1.36900
C2262       C  0.71696888  0.78046534  0.89599880     0.77400
O2263       O  0.76246702  0.80075832  0.91710829    -0.61100
O2264       O  0.74526111  0.77870200  0.91250370    -0.52000
C2265       C  0.75680366  0.78937147  0.83803873     0.70000
O2266       O  0.74344740  0.78593031  0.83992633    -0.46800
C2267       C  0.75052411  0.82255402  0.87636275     0.74700
O2268       O  0.72274517  0.77564037  0.87893359    -0.58700
O2269       O  0.75361370  0.81818618  0.89852097    -0.48800
O2270       O  0.72577430  0.79298888  0.90581094    -0.55100
C2271       C  0.75650077  0.78775499  0.92604539     0.84900
O2272       O  0.76452382  0.79614922  0.85906341    -0.57000
O2273       O  0.74527380  0.81304637  0.85711679    -0.60300
In2274     In  0.58112058  0.71648024  0.95754202     1.36900
C2275       C  0.61003287  0.72766424  0.95100136     0.77400
O2276       O  0.58024931  0.71267150  0.91113686    -0.61100
O2277       O  0.56308290  0.69651185  0.93606269    -0.52000
C2278       C  0.57219329  0.70009097  0.50009413     0.70000
O2279       O  0.58506653  0.70541317  0.49045616    -0.46800
C2280       C  0.57612841  0.73901746  0.95989329     0.74700
O2281       O  0.60064073  0.71510399  0.94214114    -0.58700
O2282       O  0.57287326  0.73063618  0.93898319    -0.48800
O2283       O  0.60463164  0.73423366  0.96432964    -0.55100
C2284       C  0.56859091  0.70035184  0.91194777     0.84900
O2285       O  0.56343837  0.70253958  0.98869186    -0.57000
O2286       O  0.58144253  0.73553170  0.98013762    -0.60300
In2287     In  0.46271032  0.38291379  0.81195436     1.36900
C2288       C  0.45170323  0.39959743  0.79542495     0.77400
O2289       O  0.48092642  0.40292229  0.83292623    -0.61100
O2290       O  0.48594990  0.39445191  0.79674645    -0.52000
C2291       C  0.45532723  0.36660228  0.85809174     0.70000
O2292       O  0.44688966  0.37041527  0.84677576    -0.46800
C2293       C  0.45293533  0.36209715  0.77279713     0.74700
O2294       O  0.45054008  0.39514566  0.82036279    -0.58700
O2295       O  0.46590614  0.36795557  0.78229830    -0.48800
O2296       O  0.45877304  0.39577590  0.77943615    -0.55100
C2297       C  0.49053869  0.40432722  0.81532943     0.84900
O2298       O  0.46763164  0.37151491  0.84622610    -0.57000
O2299       O  0.44497966  0.36647740  0.78420429    -0.60300
In2300     In  0.38648349  0.46529710  0.70161234     1.36900
C2301       C  0.40051387  0.45180641  0.72048896     0.77400
O2302       O  0.40804662  0.48160226  0.68145446    -0.61100
O2303       O  0.40008389  0.48892681  0.71491713    -0.52000
C2304       C  0.37046033  0.45854870  0.65451988     0.70000
O2305       O  0.37512118  0.45053374  0.66447071    -0.46800
C2306       C  0.36533930  0.45748743  0.74024998     0.74700
O2307       O  0.39624268  0.45057940  0.69535950    -0.58700
O2308       O  0.37229662  0.47031790  0.73041916    -0.48800
O2309       O  0.39766625  0.45996560  0.73550743    -0.55100
C2310       C  0.41023778  0.49208337  0.69739597     0.84900
O2311       O  0.37435821  0.47016918  0.66825246    -0.57000
O2312       O  0.36890648  0.44872181  0.72962699    -0.60300
In2313     In  0.19490760  0.24767636  0.88654019     1.36900
C2314       C  0.20837208  0.27644021  0.89703354     0.77400
O2315       O  0.17698034  0.24827854  0.86146580    -0.61100
O2316       O  0.17215458  0.24003779  0.90282180    -0.52000
C2317       C  0.20268981  0.23676224  0.84326987     0.70000
O2318       O  0.21083121  0.24944829  0.85314607    -0.46800
C2319       C  0.20200521  0.23630042  0.92948460     0.74700
O2320       O  0.20797925  0.27135255  0.87287090    -0.58700
O2321       O  0.18930775  0.22993051  0.91864091    -0.48800
O2322       O  0.20172216  0.26680214  0.91545168    -0.55100
C2323       C  0.16761222  0.24312697  0.88089138     0.84900
O2324       O  0.19048426  0.22957267  0.85561484    -0.57000
O2325       O  0.21105942  0.24809841  0.91762147    -0.60300
In2326     In  0.27754100  0.41374952  0.94856118     1.36900
C2327       C  0.26274736  0.38490883  0.93867901     0.77400
O2328       O  0.25747318  0.41141043  0.97137235    -0.61100
O2329       O  0.26288791  0.42210775  0.93224154    -0.52000
C2330       C  0.29854414  0.42503866  0.49324087     0.70000
O2331       O  0.29418648  0.41280367  0.48163885    -0.46800
C2332       C  0.29632560  0.42517804  0.90573174     0.74700
O2333       O  0.26541113  0.39030447  0.96303706    -0.58700
O2334       O  0.29387647  0.41371157  0.91853916    -0.48800
O2335       O  0.26753925  0.39430476  0.91937343    -0.55100
C2336       C  0.25399375  0.41745672  0.95248051     0.84900
O2337       O  0.29178626  0.43173106  0.97970273    -0.57000
O2338       O  0.28932613  0.43115095  0.91527148    -0.60300
In2339     In  0.41204348  0.27774989  0.56057281     1.36900
C2340       C  0.38341749  0.26061543  0.57092394     0.77400
O2341       O  0.41261169  0.25983273  0.53544882    -0.61100
O2342       O  0.42180237  0.26440155  0.57624349    -0.52000
C2343       C  0.42199716  0.29636098  0.51766186     0.70000
O2344       O  0.40889218  0.29029247  0.52624085    -0.46800
C2345       C  0.42167266  0.29675244  0.60295118     0.74700
O2346       O  0.38832363  0.26590029  0.54706358    -0.58700
O2347       O  0.42817865  0.28997082  0.59523683    -0.48800
O2348       O  0.39320702  0.26399524  0.58935674    -0.55100
C2349       C  0.41855920  0.25641479  0.55471426     0.84900
O2350       O  0.43012701  0.29275115  0.53089142    -0.57000
O2351       O  0.41059910  0.29413379  0.58834673    -0.60300
In2352     In  0.24760136  0.19322591  0.63567728     1.36900
C2353       C  0.27581614  0.20540293  0.62052017     0.77400
O2354       O  0.24900948  0.17519501  0.65844338    -0.61100
O2355       O  0.23743887  0.17013962  0.61992701    -0.52000
C2356       C  0.23782868  0.20067024  0.68102125     0.70000
O2357       O  0.25084243  0.20817125  0.67207111    -0.46800
C2358       C  0.23560284  0.20206569  0.59677486     0.74700
O2359       O  0.27186452  0.20491091  0.64563680    -0.58700
O2360       O  0.23023134  0.18872659  0.60324886    -0.48800
O2361       O  0.26532368  0.19963137  0.60324830    -0.55100
C2362       C  0.24196908  0.16564467  0.63992257     0.84900
O2363       O  0.22989685  0.18915647  0.66707809    -0.57000
O2364       O  0.24692467  0.21079628  0.61057553    -0.60300
In2365     In  0.71672579  0.13227581  0.54537942     1.36900
C2366       C  0.72850278  0.11525589  0.55593087     0.77400
O2367       O  0.73640786  0.15043372  0.52317009    -0.61100
O2368       O  0.72972241  0.15561358  0.56122639    -0.52000
C2369       C  0.70045605  0.12414496  0.99953529     0.70000
O2370       O  0.70329053  0.11592070  0.51162575    -0.46800
C2371       C  0.70017327  0.12872362  0.59012470     0.74700
O2372       O  0.73418222  0.12586949  0.53908825    -0.58700
O2373       O  0.71371204  0.13280337  0.59167395    -0.48800
O2374       O  0.71641803  0.11287776  0.56605360    -0.55100
C2375       C  0.73892760  0.16005826  0.54150051     0.84900
O2376       O  0.70391947  0.13635144  0.51222965    -0.57000
O2377       O  0.69527936  0.12727950  0.56548240    -0.60300
In2378     In  0.79734746  0.04925838  0.62921738     1.36900
C2379       C  0.78341239  0.06396148  0.61676087     0.77400
O2380       O  0.81416391  0.06872540  0.65406324    -0.61100
O2381       O  0.82098153  0.06385689  0.61575527    -0.52000
C2382       C  0.78950242  0.03154776  0.67381369     0.70000
O2383       O  0.78172855  0.03654143  0.66403911    -0.46800
C2384       C  0.78991169  0.02962788  0.58761129     0.74700
O2385       O  0.78066558  0.05625085  0.63854299    -0.58700
O2386       O  0.80209880  0.03497032  0.60020683    -0.48800
O2387       O  0.79351049  0.06436130  0.60166212    -0.55100
C2388       C  0.82446495  0.07231539  0.63666526     0.84900
O2389       O  0.80153699  0.03591497  0.66116095    -0.57000
O2390       O  0.78167002  0.03426262  0.59646580    -0.60300
In2391     In  0.74767275  0.94135071  0.87739798     1.36900
C2392       C  0.71903703  0.92565442  0.89055376     0.77400
O2393       O  0.74768114  0.92296225  0.85296590    -0.61100
O2394       O  0.75667477  0.92737795  0.89383757    -0.52000
C2395       C  0.75664988  0.95920961  0.83293947     0.70000
O2396       O  0.74379212  0.95330345  0.84277921    -0.46800
C2397       C  0.75921190  0.96102111  0.91873760     0.74700
O2398       O  0.72351109  0.92867527  0.86563322    -0.58700
O2399       O  0.76514351  0.95380369  0.91024890    -0.48800
O2400       O  0.72921679  0.93032259  0.90847173    -0.55100
C2401       C  0.75338607  0.91936069  0.87235794     0.84900
O2402       O  0.76509615  0.95586257  0.84572772    -0.57000
O2403       O  0.74785895  0.95856955  0.90522863    -0.60300
In2404     In  0.58195255  0.86194406  0.94567569     1.36900
C2405       C  0.61081209  0.87337986  0.93768074     0.77400
O2406       O  0.58145896  0.84386202  0.97172588    -0.61100
O2407       O  0.57279614  0.83876759  0.93058060    -0.52000
C2408       C  0.57160633  0.87188221  0.48927568     0.70000
O2409       O  0.58453632  0.87912121  0.47981150    -0.46800
C2410       C  0.57251307  0.87003387  0.90092927     0.74700
O2411       O  0.60551895  0.87408523  0.96102487    -0.58700
O2412       O  0.56459244  0.85794735  0.91312814    -0.48800
O2413       O  0.60130437  0.86659166  0.91893343    -0.55100
C2414       C  0.57593036  0.83433266  0.95259909     0.84900
O2415       O  0.56395513  0.85916481  0.97531775    -0.57000
O2416       O  0.58493613  0.87795835  0.91210815    -0.60300
In2417     In  0.52973149  0.91721096  0.69779271     1.36900
C2418       C  0.54312470  0.94540580  0.71281911     0.77400
O2419       O  0.51092562  0.91754249  0.67524539    -0.61100
O2420       O  0.50667649  0.90684026  0.71444318    -0.52000
C2421       C  0.53730815  0.90771561  0.65257401     0.70000
O2422       O  0.54500418  0.92052906  0.66215202    -0.46800
C2423       C  0.53893107  0.90543512  0.73653927     0.74700
O2424       O  0.54220796  0.94145896  0.68758807    -0.58700
O2425       O  0.52546089  0.90037329  0.73103355    -0.48800
O2426       O  0.53650292  0.93496922  0.72976106    -0.55100
C2427       C  0.50159858  0.91053291  0.69410995     0.84900
O2428       O  0.52547776  0.89988221  0.66569767    -0.57000
O2429       O  0.54757963  0.91615889  0.72158902    -0.60300
In2430     In  0.61074385  0.07843867  0.79375371     1.36900
C2431       C  0.59832503  0.05051958  0.77695125     0.77400
O2432       O  0.58930469  0.07240639  0.81509945    -0.61100
O2433       O  0.59837717  0.09083736  0.78838236    -0.52000
C2434       C  0.62803528  0.08818156  0.83903858     0.70000
O2435       O  0.62283455  0.07533339  0.82950381    -0.46800
C2436       C  0.63031315  0.09158563  0.75296648     0.74700
O2437       O  0.60156421  0.06093466  0.76026963    -0.58700
O2438       O  0.63293284  0.08639613  0.77454281    -0.48800
O2439       O  0.60133992  0.05440497  0.80218706    -0.55100
C2440       C  0.58793491  0.08258426  0.80440484     0.84900
O2441       O  0.62416297  0.09602801  0.82559990    -0.57000
O2442       O  0.61767157  0.09032055  0.75246224    -0.60300
In2443     In  0.38518876  0.91780900  0.71075114     1.36900
C2444       C  0.39766320  0.94651530  0.72227079     0.77400
O2445       O  0.36359425  0.90173732  0.73025156    -0.61100
O2446       O  0.38246326  0.91253870  0.75645039    -0.52000
C2447       C  0.36751431  0.90919783  0.66594749     0.70000
O2448       O  0.37277449  0.92183297  0.67663851    -0.46800
C2449       C  0.40670841  0.91144271  0.70450340     0.74700
O2450       O  0.40322235  0.94126685  0.70573582    -0.58700
O2451       O  0.39857564  0.90780413  0.72581436    -0.48800
O2452       O  0.38534946  0.93713210  0.73205666    -0.55100
C2453       C  0.36880861  0.90361046  0.75469404     0.84900
O2454       O  0.37144094  0.90106564  0.67805652    -0.57000
O2455       O  0.40350174  0.91791732  0.68604256    -0.60300
In2456     In  0.46602342  0.07938599  0.80672642     1.36900
C2457       C  0.45146853  0.05161456  0.78849268     0.77400
O2458       O  0.44948204  0.08352403  0.78485889    -0.61100
O2459       O  0.47104000  0.09335153  0.76804463    -0.52000
C2460       C  0.46083017  0.08952649  0.85415482     0.70000
O2461       O  0.45582810  0.07604212  0.84945367    -0.46800
C2462       C  0.49323580  0.08420434  0.81549439     0.74700
O2463       O  0.44643540  0.05633814  0.80729931    -0.58700
O2464       O  0.49036097  0.09139524  0.79800281    -0.48800
O2465       O  0.46393322  0.06105482  0.77941107    -0.55100
C2466       C  0.45817173  0.09137146  0.76584878     0.84900
O2467       O  0.46884484  0.09785068  0.83485172    -0.57000
O2468       O  0.48222327  0.07490923  0.82922663    -0.60300
In2469     In  0.41419691  0.13392618  0.55706274     1.36900
C2470       C  0.38492701  0.11725097  0.56053616     0.77400
O2471       O  0.41367096  0.12908358  0.60283665    -0.61100
O2472       O  0.43176657  0.13124939  0.57937332    -0.52000
C2473       C  0.42396862  0.12572639  0.51290102     0.70000
O2474       O  0.41074629  0.11877367  0.52097786    -0.46800
C2475       C  0.42048771  0.16190640  0.55459258     0.74700
O2476       O  0.39358636  0.11247981  0.56560834    -0.58700
O2477       O  0.42063901  0.15580599  0.57717309    -0.48800
O2478       O  0.39122572  0.13037191  0.55221738    -0.55100
C2479       C  0.42531374  0.12836700  0.60270506     0.84900
O2480       O  0.43209620  0.13717475  0.52689240    -0.57000
O2481       O  0.41770936  0.15386028  0.53324599    -0.60300
In2482     In  0.24789236  0.04917382  0.61646638     1.36900
C2483       C  0.27704630  0.06445562  0.60952222     0.77400
O2484       O  0.25104701  0.04104177  0.57531878    -0.61100
O2485       O  0.22911481  0.03340858  0.58781977    -0.52000
C2486       C  0.23823661  0.03021145  0.65910063     0.70000
O2487       O  0.25009019  0.03399146  0.64621622    -0.46800
C2488       C  0.24247562  0.07089787  0.62639694     0.74700
O2489       O  0.27079230  0.05327014  0.62501869    -0.58700
O2490       O  0.23818588  0.06307714  0.60454903    -0.48800
O2491       O  0.26841855  0.06820484  0.59880130    -0.55100
C2492       C  0.23763942  0.03319669  0.56945152     0.84900
O2493       O  0.23109329  0.03605178  0.64999003    -0.57000
O2494       O  0.24921553  0.06729649  0.64367611    -0.60300
In2495     In  0.19888123  0.94246454  0.86541614     1.36900
C2496       C  0.21378734  0.92901490  0.88046101     0.77400
O2497       O  0.21513870  0.96250100  0.88903965    -0.61100
O2498       O  0.19254399  0.95314281  0.89960189    -0.52000
C2499       C  0.20574321  0.95984257  0.82096082     0.70000
O2500       O  0.21345111  0.95451088  0.82953743    -0.46800
C2501       C  0.17207430  0.91911694  0.85805336     0.74700
O2502       O  0.21312616  0.93239958  0.85543697    -0.58700
O2503       O  0.17562480  0.92720539  0.87949044    -0.48800
O2504       O  0.20679971  0.93245737  0.89743925    -0.55100
C2505       C  0.20564056  0.96315486  0.90425924     0.84900
O2506       O  0.19412222  0.95596447  0.83484342    -0.57000
O2507       O  0.18213381  0.92324027  0.83999406    -0.60300
In2508     In  0.28001707  0.86103899  0.95741462     1.36900
C2509       C  0.26674960  0.87592660  0.94130911     0.77400
O2510       O  0.30271949  0.87394038  0.93962231    -0.61100
O2511       O  0.28656165  0.85607086  0.91570184    -0.52000
C2512       C  0.29676402  0.87243487  0.50316076     0.70000
O2513       O  0.29451981  0.88067129  0.48728042    -0.46800
C2514       C  0.25780447  0.83386497  0.96580159     0.74700
O2515       O  0.26828058  0.87355542  0.96657654    -0.58700
O2516       O  0.26900828  0.83652040  0.95155628    -0.48800
O2517       O  0.27210141  0.87074430  0.92417021    -0.55100
C2518       C  0.29967259  0.86656806  0.91727847     0.84900
O2519       O  0.29122164  0.85652181  0.99343528    -0.57000
O2520       O  0.25818480  0.84508056  0.97611173    -0.60300
C2521       C  0.22196964  0.92162594  0.88950454    -0.01500
C2522       C  0.22189712  0.91821240  0.91780158    -0.09500
C2523       C  0.22925985  0.91106313  0.92709285    -0.18300
C2524       C  0.23702530  0.90699561  0.90826514     0.04000
C2525       C  0.23724842  0.91060799  0.87951177     0.18200
C2526       C  0.22976626  0.91788072  0.87040455    -0.19800
C2527       C  0.24484065  0.90683526  0.86007789    -0.21000
C2528       C  0.25204792  0.89937787  0.86852205    -0.19600
C2529       C  0.25189954  0.89554633  0.89663492     0.19600
C2530       C  0.24446956  0.89939636  0.91695290     0.01700
C2531       C  0.24475590  0.89540323  0.94510872    -0.14300
C2532       C  0.25203154  0.88788669  0.95272343    -0.12000
C2533       C  0.25922820  0.88401017  0.93267999     0.01300
C2534       C  0.25912222  0.88786174  0.90461049    -0.24200
H2535       H  0.21602115  0.92103062  0.93299379     0.09300
H2536       H  0.22855643  0.90882708  0.94919268     0.12800
H2537       H  0.22993475  0.92053415  0.84843743     0.11600
H2538       H  0.24512672  0.90958596  0.83814928     0.12800
H2539       H  0.25774263  0.89654488  0.85292590     0.11800
H2540       H  0.23946923  0.89790185  0.96185980     0.08900
H2541       H  0.25194040  0.88501554  0.97451510     0.12100
H2542       H  0.26471262  0.88492436  0.88895449     0.14000
C2543       C  0.20968763  0.97464367  0.92590505    -0.01500
C2544       C  0.22412072  0.98650931  0.92711744    -0.09500
C2545       C  0.22840779  0.99710826  0.94813272    -0.18300
C2546       C  0.21838856  0.99608557  0.96907682     0.04000
C2547       C  0.20371265  0.98404388  0.96773223     0.18200
C2548       C  0.19944431  0.97361688  0.94599348    -0.19800
C2549       C  0.19354025  0.98223482  0.98859763    -0.21000
C2550       C  0.19872601  0.99481943  0.51007674    -0.19600
C2551       C  0.21360552  0.00523177  0.51431072     0.19600
C2552       C  0.22442243  0.00629695  0.49491656     0.01700
C2553       C  0.23928711  0.01697955  0.50005375    -0.14300
C2554       C  0.24330146  0.02579913  0.52387195    -0.12000
C2555       C  0.23271506  0.02443472  0.54338453     0.01300
C2556       C  0.21781426  0.01434856  0.53820444    -0.24200
H2557       H  0.23222985  0.98754685  0.91183153     0.09300
H2558       H  0.23979384  0.00573065  0.94784424     0.12800
H2559       H  0.18826070  0.96440891  0.94528107     0.11600
H2560       H  0.18232210  0.97311767  0.98768688     0.12800
H2561       H  0.19040151  0.99397038  0.52465296     0.11800
H2562       H  0.24817898  0.01867289  0.48634884     0.08900
H2563       H  0.25487701  0.03361723  0.52723615     0.12100
H2564       H  0.20954545  0.01328869  0.55316084     0.14000
C2565       C  0.23339895  0.01991754  0.68297501    -0.01500
C2566       C  0.24274425  0.01501684  0.69292132    -0.09500
C2567       C  0.23863548  0.00536141  0.71535899    -0.18300
C2568       C  0.22486489  0.00011922  0.72871964     0.04000
C2569       C  0.21542525  0.00524641  0.71887881     0.18200
C2570       C  0.21974195  0.01505216  0.69613574    -0.19800
C2571       C  0.20178108  0.00055119  0.73183407    -0.21000
C2572       C  0.19730881  0.99085952  0.75433985    -0.19600
C2573       C  0.20629907  0.98549628  0.76429250     0.19600
C2574       C  0.22017918  0.99000586  0.75148003     0.01700
C2575       C  0.22875271  0.98410476  0.76187266    -0.14300
C2576       C  0.22386630  0.97429975  0.78411203    -0.12000
C2577       C  0.21030304  0.96998577  0.79692763     0.01300
C2578       C  0.20152068  0.97561339  0.78693532    -0.24200
H2579       H  0.25340441  0.01872077  0.68333516     0.09300
H2580       H  0.24658556  0.00228650  0.72173639     0.12800
H2581       H  0.21246686  0.01887050  0.68866445     0.11600
H2582       H  0.19452642  0.00442444  0.72454379     0.12800
H2583       H  0.18670744  0.98747591  0.76393452     0.11800
H2584       H  0.23929852  0.98674936  0.75324037     0.08900
H2585       H  0.23085277  0.97011403  0.79141411     0.12100
H2586       H  0.19097681  0.97230054  0.79674234     0.14000
C2587       C  0.29302066  0.07211068  0.60327170    -0.01500
C2588       C  0.30171699  0.06621083  0.61212468    -0.09500
C2589       C  0.31657637  0.07278801  0.60462029    -0.18300
C2590       C  0.32329126  0.08563384  0.58803719     0.04000
C2591       C  0.31446469  0.09173361  0.57958332     0.18200
C2592       C  0.29949174  0.08490156  0.58703311    -0.19800
C2593       C  0.32063550  0.10465225  0.56381366    -0.21000
C2594       C  0.33548653  0.11184095  0.55667148    -0.19600
C2595       C  0.34448487  0.10614185  0.56463669     0.19600
C2596       C  0.33846670  0.09278456  0.57991905     0.01700
C2597       C  0.34794099  0.08723929  0.58647787    -0.14300
C2598       C  0.36285434  0.09495554  0.57922856    -0.12000
C2599       C  0.36884756  0.10843283  0.56531062     0.01300
C2600       C  0.35954165  0.11384945  0.55770219    -0.24200
H2601       H  0.29695446  0.05630436  0.62459968     0.09300
H2602       H  0.32252181  0.06759871  0.61228968     0.12800
H2603       H  0.29284113  0.08955169  0.58007840     0.11600
H2604       H  0.31396786  0.10934790  0.55726928     0.12800
H2605       H  0.33997442  0.12195545  0.54485128     0.11800
H2606       H  0.34419066  0.07700658  0.59730947     0.08900
H2607       H  0.36981393  0.09050527  0.58520776     0.12100
H2608       H  0.36407399  0.12422362  0.54672643     0.14000
C2609       C  0.45351474  0.09750738  0.74279722    -0.01500
C2610       C  0.44000180  0.09715752  0.74432475    -0.09500
C2611       C  0.43521884  0.10251923  0.72244469    -0.18300
C2612       C  0.44379879  0.10830724  0.69795754     0.04000
C2613       C  0.45747401  0.10853094  0.69640678     0.18200
C2614       C  0.46226004  0.10330490  0.71883706    -0.19800
C2615       C  0.46620899  0.11380463  0.67235209    -0.21000
C2616       C  0.46161079  0.11877295  0.64964755    -0.19600
C2617       C  0.44824912  0.11877583  0.65055312     0.19600
C2618       C  0.43921867  0.11369475  0.67484784     0.01700
C2619       C  0.42597330  0.11419965  0.67491502    -0.14300
C2620       C  0.42176783  0.11926111  0.65170600    -0.12000
C2621       C  0.43052497  0.12396503  0.62762714     0.01300
C2622       C  0.44380962  0.12376128  0.62720996    -0.24200
H2623       H  0.43303851  0.09269435  0.76260104     0.09300
H2624       H  0.42468088  0.10178747  0.72525241     0.12800
H2625       H  0.47267926  0.10348061  0.71739500     0.11600
H2626       H  0.47662122  0.11396804  0.67098202     0.12800
H2627       H  0.46857068  0.12265707  0.63124819     0.11800
H2628       H  0.41859960  0.11077341  0.69252117     0.08900
H2629       H  0.41143979  0.11928665  0.65252880     0.12100
H2630       H  0.45065750  0.12738948  0.60863352     0.14000
C2631       C  0.45712426  0.09506235  0.87963035    -0.01500
C2632       C  0.46368699  0.11017123  0.88468679    -0.09500
C2633       C  0.45925742  0.11550080  0.90733203    -0.18300
C2634       C  0.44790100  0.10581239  0.92555827     0.04000
C2635       C  0.44154342  0.09046887  0.92067506     0.18200
C2636       C  0.44629799  0.08527414  0.89811668    -0.19800
C2637       C  0.43018680  0.08037562  0.93786439    -0.21000
C2638       C  0.42470899  0.08517035  0.95944113    -0.19600
C2639       C  0.43055354  0.10018104  0.96457602     0.19600
C2640       C  0.44239848  0.11074875  0.94803563     0.01700
C2641       C  0.44808399  0.12577023  0.95460588    -0.14300
C2642       C  0.44216628  0.13006515  0.97645873    -0.12000
C2643       C  0.43031931  0.11960348  0.99224090     0.01300
C2644       C  0.42457331  0.10467835  0.98619198    -0.24200
H2645       H  0.47213243  0.11794974  0.87076336     0.09300
H2646       H  0.46471364  0.12726258  0.90961001     0.12800
H2647       H  0.44115852  0.07355301  0.89436789     0.11600
H2648       H  0.42532698  0.06867212  0.93429886     0.12800
H2649       H  0.41576472  0.07706583  0.97211348     0.11800
H2650       H  0.45712734  0.13447188  0.94333711     0.08900
H2651       H  0.44682129  0.14166384  0.98088541     0.12100
H2652       H  0.41551483  0.09651010  0.99858534     0.14000
C2653       C  0.35959717  0.89640978  0.77938241    -0.01500
C2654       C  0.36533442  0.90102709  0.80631792    -0.09500
C2655       C  0.35629867  0.89544045  0.82977885    -0.18300
C2656       C  0.34112819  0.88500428  0.82695997     0.04000
C2657       C  0.33555197  0.87985346  0.79958472     0.18200
C2658       C  0.34479320  0.88555327  0.77617959    -0.19800
C2659       C  0.32068302  0.86937735  0.79562935    -0.21000
C2660       C  0.31106249  0.86423136  0.81822418    -0.19600
C2661       C  0.31607307  0.86947214  0.84530474     0.19600
C2662       C  0.33121768  0.87980556  0.85015140     0.01700
C2663       C  0.33566745  0.88483098  0.87788553    -0.14300
C2664       C  0.32542888  0.88023240  0.89959629    -0.12000
C2665       C  0.31050487  0.87032365  0.89457390     0.01300
C2666       C  0.30593140  0.86473618  0.86749721    -0.24200
H2667       H  0.37678859  0.90934293  0.80926896     0.09300
H2668       H  0.36148959  0.89972377  0.84973933     0.12800
H2669       H  0.34033668  0.88182081  0.75534563     0.11600
H2670       H  0.31640071  0.86533272  0.77483430     0.12800
H2671       H  0.29955344  0.85631394  0.81440652     0.11800
H2672       H  0.34691036  0.89256298  0.88345645     0.08900
H2673       H  0.32920681  0.88461184  0.92043285     0.12100
H2674       H  0.29436150  0.85709207  0.86347904     0.14000
C2675       C  0.35742493  0.90424936  0.64155433    -0.01500
C2676       C  0.35479253  0.91419956  0.62685714    -0.09500
C2677       C  0.34503360  0.90957120  0.60418921    -0.18300
C2678       C  0.33744577  0.89467560  0.59557388     0.04000
C2679       C  0.34026347  0.88463857  0.61044293     0.18200
C2680       C  0.35018322  0.88948491  0.63310705    -0.19800
C2681       C  0.33314175  0.86980230  0.60268954    -0.21000
C2682       C  0.32327350  0.86468424  0.58037786    -0.19600
C2683       C  0.32021801  0.87425808  0.56533820     0.19600
C2684       C  0.32719597  0.88938422  0.57276211     0.01700
C2685       C  0.32358014  0.89854112  0.55705231    -0.14300
C2686       C  0.31365900  0.89293903  0.53471245    -0.12000
C2687       C  0.30695986  0.87809020  0.52730419     0.01300
C2688       C  0.31021912  0.86877253  0.54282029    -0.24200
H2689       H  0.36031838  0.92568079  0.63289272     0.09300
H2690       H  0.34368411  0.91790273  0.59395440     0.12800
H2691       H  0.35215088  0.88169902  0.64437760     0.11600
H2692       H  0.33523423  0.86209396  0.61393934     0.12800
H2693       H  0.31798265  0.85314420  0.57486904     0.11800
H2694       H  0.32819907  0.91003979  0.56141789     0.08900
H2695       H  0.31124802  0.90033897  0.52312611     0.12100
H2696       H  0.30505701  0.85724943  0.53724172     0.14000
C2697       C  0.40522438  0.96224687  0.73009934    -0.01500
C2698       C  0.41890771  0.97200879  0.71828744    -0.09500
C2699       C  0.42664075  0.98671043  0.72657870    -0.18300
C2700       C  0.42092647  0.99218776  0.74721689     0.04000
C2701       C  0.40688698  0.98229369  0.75879847     0.18200
C2702       C  0.39921230  0.96749232  0.75022092    -0.19800
C2703       C  0.40064919  0.98720190  0.77903674    -0.21000
C2704       C  0.40809746  0.00171800  0.78821898    -0.19600
C2705       C  0.42203599  0.01167514  0.77758775     0.19600
C2706       C  0.42866143  0.00706794  0.75690005     0.01700
C2707       C  0.44281549  0.01753007  0.74705439    -0.14300
C2708       C  0.45006591  0.03188032  0.75737777    -0.12000
C2709       C  0.44352516  0.03635618  0.77778490     0.01300
C2710       C  0.42945931  0.02620675  0.78771872    -0.24200
H2711       H  0.42377878  0.96822944  0.70268708     0.09300
H2712       H  0.43709154  0.99346139  0.71648845     0.12800
H2713       H  0.38862500  0.95999947  0.75952076     0.11600
H2714       H  0.38993859  0.97974351  0.78790108     0.12800
H2715       H  0.40296710  0.00514962  0.80394874     0.11800
H2716       H  0.44866126  0.01497903  0.73152555     0.08900
H2717       H  0.46092241  0.03951907  0.74934512     0.12100
H2718       H  0.42430127  0.02959354  0.80348671     0.14000
C2719       C  0.57501269  0.08441375  0.80989151    -0.01500
C2720       C  0.56456059  0.07570998  0.83000452    -0.09500
C2721       C  0.55182583  0.07660815  0.83418872    -0.18300
C2722       C  0.54898527  0.08615383  0.81794784     0.04000
C2723       C  0.55980273  0.09521469  0.79799302     0.18200
C2724       C  0.57271023  0.09438853  0.79439088    -0.19800
C2725       C  0.55745311  0.10469393  0.78105973    -0.21000
C2726       C  0.54428608  0.10487951  0.78253116    -0.19600
C2727       C  0.53321399  0.09574503  0.80125867     0.19600
C2728       C  0.53556330  0.08658820  0.81989588     0.01700
C2729       C  0.52416185  0.07793374  0.83899481    -0.14300
C2730       C  0.51066163  0.07762131  0.83820242    -0.12000
C2731       C  0.50811708  0.08600607  0.81865186     0.01300
C2732       C  0.51960826  0.09537653  0.80081031    -0.24200
H2733       H  0.56612954  0.06798241  0.84238321     0.09300
H2734       H  0.54424512  0.06939602  0.84975888     0.12800
H2735       H  0.58074165  0.10117412  0.77877673     0.11600
H2736       H  0.56568562  0.11171033  0.76596298     0.12800
H2737       H  0.54263706  0.11201901  0.76851158     0.11800
H2738       H  0.52522117  0.07107543  0.85443760     0.08900
H2739       H  0.50203136  0.07046992  0.85252209     0.12100
H2740       H  0.51779430  0.10202873  0.78579600     0.14000
C2741       C  0.48618128  0.90744360  0.69328092    -0.01500
C2742       C  0.47669486  0.90030424  0.71576430    -0.09500
C2743       C  0.46283562  0.89915073  0.71721577    -0.18300
C2744       C  0.45805072  0.90526085  0.69618097     0.04000
C2745       C  0.46730984  0.91156625  0.67245091     0.18200
C2746       C  0.48117716  0.91252856  0.67115714    -0.19800
C2747       C  0.46294134  0.91740900  0.65064622    -0.21000
C2748       C  0.44985241  0.91770708  0.65238065    -0.19600
C2749       C  0.44084713  0.91224837  0.67602992     0.19600
C2750       C  0.44468379  0.90576773  0.69817234     0.01700
C2751       C  0.43525056  0.90061346  0.72174192    -0.14300
C2752       C  0.42278070  0.90217454  0.72345942    -0.12000
C2753       C  0.41924404  0.90880429  0.70175669     0.01300
C2754       C  0.42821121  0.91361168  0.67794505    -0.24200
H2755       H  0.48019283  0.89600060  0.73284996     0.09300
H2756       H  0.45627958  0.89371257  0.73538800     0.12800
H2757       H  0.48835135  0.91783835  0.65343081     0.11600
H2758       H  0.46986290  0.92208643  0.63237511     0.12800
H2759       H  0.44693013  0.92257643  0.63537566     0.11800
H2760       H  0.43737212  0.89562296  0.73947807     0.08900
H2761       H  0.41601686  0.89839992  0.74210930     0.12100
H2762       H  0.42556355  0.91879416  0.66108432     0.14000
C2763       C  0.55162298  0.96084831  0.72226807    -0.01500
C2764       C  0.55270663  0.96400920  0.75093617    -0.09500
C2765       C  0.56098611  0.97837663  0.76069081    -0.18300
C2766       C  0.56845801  0.99021119  0.74194703     0.04000
C2767       C  0.56726160  0.98700883  0.71277977     0.18200
C2768       C  0.55904788  0.97239264  0.70323560    -0.19800
C2769       C  0.57402332  0.99843918  0.69336889    -0.21000
C2770       C  0.58146043  0.01301784  0.70226974    -0.19600
C2771       C  0.58270320  0.01650309  0.73084004     0.19600
C2772       C  0.57666465  0.00512356  0.75111412     0.01700
C2773       C  0.57899655  0.00917347  0.77972566    -0.14300
C2774       C  0.58625426  0.02388277  0.78783980    -0.12000
C2775       C  0.59142007  0.03504539  0.76785007     0.01300
C2776       C  0.58983753  0.03130601  0.73933232    -0.24200
H2777       H  0.54712058  0.95528706  0.76607101     0.09300
H2778       H  0.56103513  0.97984593  0.78301991     0.12800
H2779       H  0.55830026  0.97002628  0.68098899     0.11600
H2780       H  0.57323047  0.99610622  0.67111387     0.12800
H2781       H  0.58622490  0.02162783  0.68669327     0.11800
H2782       H  0.57539275  0.00125659  0.79639517     0.08900
H2783       H  0.58761612  0.02651672  0.80998000     0.12100
H2784       H  0.59409921  0.03991992  0.72371897     0.14000
C2785       C  0.56624439  0.87693919  0.51311446    -0.01500
C2786       C  0.55170398  0.86838600  0.52241985    -0.09500
C2787       C  0.54651628  0.87287580  0.54512570    -0.18300
C2788       C  0.55577571  0.88618684  0.55939927     0.04000
C2789       C  0.57055547  0.89484030  0.54988729     0.18200
C2790       C  0.57562164  0.89017753  0.52694865    -0.19800
C2791       C  0.58018985  0.90809898  0.56330027    -0.21000
C2792       C  0.57541976  0.91306957  0.58579052    -0.19600
C2793       C  0.56090455  0.90488990  0.59546994     0.19600
C2794       C  0.55089200  0.89125634  0.58261279     0.01700
C2795       C  0.53642199  0.88332004  0.59354593    -0.14300
C2796       C  0.53208237  0.88874709  0.61608436    -0.12000
C2797       C  0.54192616  0.90224550  0.62837808     0.01300
C2798       C  0.55633263  0.91027280  0.61799269    -0.24200
H2799       H  0.54425213  0.85810667  0.51209944     0.09300
H2800       H  0.53519292  0.86567266  0.55089539     0.12800
H2801       H  0.58691347  0.89686181  0.51990488     0.11600
H2802       H  0.59148395  0.91471621  0.55625211     0.12800
H2803       H  0.58313199  0.92341771  0.59562651     0.11800
H2804       H  0.52818316  0.87286571  0.58525042     0.08900
H2805       H  0.52091924  0.88233149  0.62389573     0.12100
H2806       H  0.56406785  0.92067511  0.62765120     0.14000
C2807       C  0.56787448  0.87466234  0.87553183    -0.01500
C2808       C  0.57844244  0.88624696  0.85941394    -0.09500
C2809       C  0.57435040  0.89116671  0.83584215    -0.18300
C2810       C  0.55939580  0.88473764  0.82772952     0.04000
C2811       C  0.54872103  0.87276403  0.84384300     0.18200
C2812       C  0.55304432  0.86777953  0.86735461    -0.19800
C2813       C  0.53377813  0.86596236  0.83660649    -0.21000
C2814       C  0.52915621  0.87087741  0.81386916    -0.19600
C2815       C  0.53935173  0.88273993  0.79780316     0.19600
C2816       C  0.55463779  0.88983565  0.80443354     0.01700
C2817       C  0.56445150  0.90185602  0.78767799    -0.14300
C2818       C  0.55929238  0.90664218  0.76547480    -0.12000
C2819       C  0.54423133  0.89967640  0.75915387     0.01300
C2820       C  0.53431683  0.88767180  0.77531597    -0.24200
H2821       H  0.59000532  0.89157742  0.86507217     0.09300
H2822       H  0.58317081  0.90009781  0.82458358     0.12800
H2823       H  0.54481401  0.85874487  0.87966441     0.11600
H2824       H  0.52558238  0.85682739  0.84874445     0.12800
H2825       H  0.51749335  0.86542186  0.80894154     0.11800
H2826       H  0.57617312  0.90791327  0.79130410     0.08900
H2827       H  0.56716259  0.91600600  0.75339501     0.12100
H2828       H  0.52262411  0.88226149  0.77062075     0.14000
C2829       C  0.70324083  0.91759345  0.89833256    -0.01500
C2830       C  0.69908917  0.91577248  0.92657352    -0.09500
C2831       C  0.68423029  0.90847378  0.93426928    -0.18300
C2832       C  0.67293791  0.90264545  0.91381348     0.04000
C2833       C  0.67723436  0.90446743  0.88515693     0.18200
C2834       C  0.69223422  0.91193812  0.87773041    -0.19800
C2835       C  0.66653946  0.89879561  0.86403021    -0.21000
C2836       C  0.65163595  0.89124857  0.87067774    -0.19600
C2837       C  0.64703039  0.88934245  0.89861520     0.19600
C2838       C  0.65757226  0.89508311  0.92066160     0.01700
C2839       C  0.65222257  0.89309913  0.94849175    -0.14300
C2840       C  0.63707933  0.88591169  0.95404547    -0.12000
C2841       C  0.62680510  0.88030810  0.93217105     0.01300
C2842       C  0.63188179  0.88190251  0.90455469    -0.24200
H2843       H  0.70739267  0.92009673  0.94289744     0.09300
H2844       H  0.68195440  0.90752609  0.95640440     0.12800
H2845       H  0.69534340  0.91331640  0.85581402     0.11600
H2846       H  0.66972590  0.90015118  0.84216981     0.12800
H2847       H  0.64363760  0.88695651  0.85379830     0.11800
H2848       H  0.65944695  0.89715721  0.96640152     0.08900
H2849       H  0.63339664  0.88480022  0.97555737     0.12100
H2850       H  0.62399381  0.87767173  0.88746951     0.14000
C2851       C  0.78560406  0.01907986  0.56408153    -0.01500
C2852       C  0.79429188  0.01298091  0.55621205    -0.09500
C2853       C  0.79037028  0.00346402  0.53317356    -0.18300
C2854       C  0.77760609  0.99983295  0.51714460     0.04000
C2855       C  0.76874173  0.00589969  0.52566824     0.18200
C2856       C  0.77276614  0.01533221  0.54887337    -0.19800
C2857       C  0.75592315  0.00262855  0.51090209    -0.21000
C2858       C  0.75280995  0.99313151  0.98491370    -0.19600
C2859       C  0.76122630  0.98690660  0.97615276     0.19600
C2860       C  0.77421398  0.98986535  0.99099324     0.01700
C2861       C  0.78223728  0.98321150  0.98101784    -0.14300
C2862       C  0.77748919  0.97399851  0.95743838    -0.12000
C2863       C  0.76467913  0.97117359  0.94301771     0.01300
C2864       C  0.75664262  0.97769594  0.95254622    -0.24200
H2865       H  0.80420568  0.01563247  0.56783038     0.09300
H2866       H  0.79756114  0.99917712  0.52837406     0.12800
H2867       H  0.76594407  0.01996640  0.55486176     0.11600
H2868       H  0.74914396  0.00723475  0.51732206     0.12800
H2869       H  0.74290139  0.99089761  0.97368690     0.11800
H2870       H  0.79218460  0.98488306  0.99102523     0.08900
H2871       H  0.78384501  0.96901528  0.95054130     0.12100
H2872       H  0.74665109  0.97549986  0.94165813     0.14000
C2873       C  0.78469264  0.02122286  0.69768965    -0.01500
C2874       C  0.77086615  0.01638185  0.70985964    -0.09500
C2875       C  0.76585297  0.00619498  0.73162518    -0.18300
C2876       C  0.77458848  0.00045481  0.74205510     0.04000
C2877       C  0.78878334  0.00567242  0.73013264     0.18200
C2878       C  0.79365010  0.01587723  0.70804274    -0.19800
C2879       C  0.79803980  0.00069019  0.74035864    -0.21000
C2880       C  0.79355708  0.99072449  0.76238980    -0.19600
C2881       C  0.77958080  0.98525049  0.77440768     0.19600
C2882       C  0.76979918  0.98984875  0.76405664     0.01700
C2883       C  0.75558664  0.98355250  0.77604747    -0.14300
C2884       C  0.75145355  0.97351028  0.79792325    -0.12000
C2885       C  0.76125541  0.96938211  0.80879750     0.01300
C2886       C  0.77530524  0.97520221  0.79676301    -0.24200
H2887       H  0.76377280  0.02041201  0.70238693     0.09300
H2888       H  0.75516256  0.00314816  0.73991166     0.12800
H2889       H  0.80441255  0.01963084  0.69886322     0.11600
H2890       H  0.80888573  0.00462900  0.73141849     0.12800
H2891       H  0.80105630  0.98722315  0.76999126     0.11800
H2892       H  0.74736476  0.98606367  0.76894690     0.08900
H2893       H  0.74048126  0.96906831  0.80660143     0.12100
H2894       H  0.78291406  0.97194095  0.80480309     0.14000
C2895       C  0.64112681  0.09826825  0.73005812    -0.01500
C2896       C  0.65553716  0.10098063  0.73368346    -0.09500
C2897       C  0.66576869  0.10672737  0.71197116    -0.18300
C2898       C  0.66184546  0.10983535  0.68558950     0.04000
C2899       C  0.64716615  0.10701242  0.68197709     0.18200
C2900       C  0.63703579  0.10143023  0.70421027    -0.19800
C2901       C  0.64261123  0.10954155  0.65606368    -0.21000
C2902       C  0.65224605  0.11457830  0.63344841    -0.19600
C2903       C  0.66674741  0.11742995  0.63629049     0.19600
C2904       C  0.67185285  0.11535632  0.66253631     0.01700
C2905       C  0.68672602  0.11879818  0.66446670    -0.14300
C2906       C  0.69595278  0.12362436  0.64113862    -0.12000
C2907       C  0.69071222  0.12512896  0.61513022     0.04900
C2908       C  0.67613701  0.12216882  0.61289850    -0.24200
H2909       H  0.65893796  0.09857632  0.75345086     0.09300
H2910       H  0.67656864  0.10836810  0.71641794     0.12800
H2911       H  0.62584833  0.09922800  0.70117406     0.11600
H2912       H  0.63144471  0.10740821  0.65314638     0.12800
H2913       H  0.64830700  0.11621138  0.61355211     0.11800
H2914       H  0.69157469  0.11782618  0.68363073     0.08900
H2915       H  0.70717762  0.12582981  0.64335506     0.12100
H2916       H  0.67202610  0.12336487  0.59282081     0.14000
C2917       C  0.63811566  0.09364124  0.86347224    -0.01500
C2918       C  0.64360132  0.10799826  0.87334076    -0.09500
C2919       C  0.65369668  0.11345480  0.89548728    -0.18300
C2920       C  0.65873129  0.10468224  0.90849595     0.04000
C2921       C  0.65283076  0.08998709  0.89883170     0.18200
C2922       C  0.64266369  0.08464471  0.87656649    -0.19800
C2923       C  0.65719674  0.08072748  0.91128312    -0.21000
C2924       C  0.66738781  0.08575504  0.93307012    -0.19600
C2925       C  0.67357751  0.10021300  0.94284268     0.19600
C2926       C  0.66939240  0.10992516  0.93065913     0.01700
C2927       C  0.67615025  0.12447286  0.94111033    -0.14300
C2928       C  0.68636600  0.12905565  0.96302558    -0.12000
C2929       C  0.69027143  0.11938449  0.97523622     0.01300
C2930       C  0.68390931  0.10499674  0.96484988    -0.24200
H2931       H  0.64017582  0.11512808  0.86371454     0.09300
H2932       H  0.65738334  0.12460044  0.90185164     0.12800
H2933       H  0.63842324  0.07348011  0.86917617     0.11600
H2934       H  0.65270522  0.06950119  0.90409085     0.12800
H2935       H  0.67050704  0.07828718  0.94226144     0.11800
H2936       H  0.67377661  0.13258675  0.93283561     0.08900
H2937       H  0.69115966  0.14024274  0.97060093     0.12100
H2938       H  0.68685436  0.09742035  0.97416716     0.14000
C2939       C  0.73568569  0.10674947  0.56414887    -0.01500
C2940       C  0.72951469  0.09602305  0.58505183    -0.09500
C2941       C  0.73684292  0.08879787  0.59457354    -0.18300
C2942       C  0.75068358  0.09209439  0.58339773     0.04000
C2943       C  0.75668196  0.10272372  0.56168109     0.18200
C2944       C  0.74921352  0.10992739  0.55240054    -0.19800
C2945       C  0.77017323  0.10620329  0.54942086    -0.21000
C2946       C  0.77783679  0.09927933  0.55805656    -0.19600
C2947       C  0.77232156  0.08883971  0.57946769     0.19600
C2948       C  0.75877143  0.08522567  0.59279114     0.01700
C2949       C  0.75400599  0.07496465  0.61497521    -0.14300
C2950       C  0.76217099  0.06834956  0.62302805    -0.12000
C2951       C  0.77525742  0.07161687  0.60919086     0.01300
C2952       C  0.78030272  0.08195777  0.58754673    -0.24200
H2953       H  0.71905932  0.09336134  0.59447448     0.09300
H2954       H  0.73140249  0.08070927  0.61070234     0.12800
H2955       H  0.75406622  0.11819495  0.53619175     0.11600
H2956       H  0.77480619  0.11429606  0.53288460     0.12800
H2957       H  0.78819702  0.10215104  0.54794079     0.11800
H2958       H  0.74403957  0.07184522  0.62654993     0.08900
H2959       H  0.75807457  0.06043693  0.63990557     0.12100
H2960       H  0.79049941  0.08466924  0.57690397     0.14000
C2961       C  0.23969100  0.15060745  0.64070593    -0.01500
C2962       C  0.23146434  0.14061968  0.61955103    -0.09500
C2963       C  0.23045831  0.12691957  0.61796402    -0.18300
C2964       C  0.23783524  0.12276699  0.63750912     0.04000
C2965       C  0.24565351  0.13268112  0.65973409     0.18200
C2966       C  0.24646408  0.14643990  0.66120963    -0.19800
C2967       C  0.25294761  0.12896673  0.67986158    -0.21000
C2968       C  0.25300784  0.11578498  0.67793513    -0.19600
C2969       C  0.24584833  0.10603244  0.65574630     0.19600
C2970       C  0.23802823  0.10931163  0.63536001     0.01700
C2971       C  0.23111296  0.09918325  0.61319412    -0.14300
C2972       C  0.23229385  0.08659884  0.61093015    -0.12000
C2973       C  0.24025798  0.08356953  0.63067478     0.01300
C2974       C  0.24679233  0.09318819  0.65336587    -0.24200
H2975       H  0.22599942  0.14352363  0.60365011     0.09300
H2976       H  0.22401759  0.11997630  0.60090224     0.12800
H2977       H  0.25279402  0.15409456  0.67776999     0.11600
H2978       H  0.25884681  0.13641248  0.69697037     0.12800
H2979       H  0.25894280  0.11333627  0.69361197     0.11800
H2980       H  0.22496889  0.10077028  0.59690082     0.08900
H2981       H  0.22712988  0.07931735  0.59324334     0.12100
H2982       H  0.25301540  0.09092445  0.66871604     0.14000
C2983       C  0.42088620  0.24368327  0.55293255    -0.01500
C2984       C  0.41936421  0.23644431  0.52744330    -0.09500
C2985       C  0.42047404  0.22373420  0.52626263    -0.18300
C2986       C  0.42288103  0.21769279  0.55081274     0.04000
C2987       C  0.42437199  0.22511624  0.57660032     0.18200
C2988       C  0.42362079  0.23807374  0.57733246    -0.19800
C2989       C  0.42619274  0.21935945  0.60168076    -0.21000
C2990       C  0.42622852  0.20616321  0.60186776    -0.19600
C2991       C  0.42474237  0.19853113  0.57690717     0.19600
C2992       C  0.42339746  0.20434302  0.55091508     0.01700
C2993       C  0.42242802  0.19640936  0.52626697    -0.14300
C2994       C  0.42202318  0.18293499  0.52754494    -0.12000
C2995       C  0.42263070  0.17692701  0.55330348     0.01300
C2996       C  0.42430952  0.18495234  0.57787077    -0.24200
H2997       H  0.41714880  0.24053980  0.50834877     0.09300
H2998       H  0.41900794  0.21868483  0.50595521     0.12800
H2999       H  0.42460825  0.24350743  0.59721818     0.11600
H3000       H  0.42729337  0.22495471  0.62140215     0.12800
H3001       H  0.42734204  0.20185001  0.62172709     0.11800
H3002       H  0.42184729  0.20026364  0.50568953     0.08900
H3003       H  0.42090172  0.17702985  0.50823262     0.12100
H3004       H  0.42490113  0.18044820  0.59790418     0.14000
C3005       C  0.36752507  0.25142283  0.57690643    -0.01500
C3006       C  0.35712627  0.24793526  0.55557627    -0.09500
C3007       C  0.34205396  0.23976171  0.56124728    -0.18300
C3008       C  0.33686913  0.23484034  0.58868057     0.04000
C3009       C  0.34751635  0.23815596  0.61013603     0.18200
C3010       C  0.36264577  0.24635487  0.60409146    -0.19800
C3011       C  0.34301411  0.23343578  0.63758998    -0.21000
C3012       C  0.32813205  0.22576551  0.64441656    -0.19600
C3013       C  0.31738058  0.22265993  0.62398243     0.19600
C3014       C  0.32155333  0.22697026  0.59571730     0.01700
C3015       C  0.31019950  0.22341267  0.57589601    -0.14300
C3016       C  0.29540423  0.21617735  0.58395749    -0.12000
C3017       C  0.29142616  0.21234227  0.61195386     0.01300
C3018       C  0.30245788  0.21546743  0.63179435    -0.24200
H3019       H  0.36065246  0.25166317  0.53437068     0.09300
H3020       H  0.33476284  0.23760578  0.54372830     0.12800
H3021       H  0.37064399  0.24896906  0.62071933     0.11600
H3022       H  0.35107101  0.23583977  0.65398918     0.12800
H3023       H  0.32501349  0.22240912  0.66594007     0.11800
H3024       H  0.31236969  0.22619055  0.55405380     0.08900
H3025       H  0.28704118  0.21384089  0.56825571     0.12100
H3026       H  0.29942395  0.21238508  0.65346503     0.14000
C3027       C  0.20602886  0.23067961  0.95429359    -0.01500
C3028       C  0.19616614  0.21698589  0.96580750    -0.09500
C3029       C  0.20015579  0.21171972  0.98914804    -0.18300
C3030       C  0.21422808  0.22006373  0.00172545     0.04000
C3031       C  0.22404584  0.23407126  0.99013590     0.18200
C3032       C  0.21986784  0.23921222  0.96681106    -0.19800
C3033       C  0.23809564  0.24283496  0.00160425    -0.21000
C3034       C  0.24279960  0.23787943  0.02405291    -0.19600
C3035       C  0.23166881  0.22678608  0.54434140     0.19600
C3036       C  0.21903435  0.21668895  0.52873783     0.01700
C3037       C  0.21159843  0.20180782  0.53721323    -0.14300
C3038       C  0.21680678  0.19712852  0.55960432    -0.12000
C3039       C  0.22946275  0.20710477  0.57438303     0.01300
C3040       C  0.23666497  0.22195008  0.56692373    -0.24200
H3041       H  0.18535251  0.21025540  0.95660452     0.09300
H3042       H  0.19530405  0.20115376  0.49220657     0.12800
H3043       H  0.22751194  0.24990989  0.95823168     0.11600
H3044       H  0.24558529  0.25354404  0.99291653     0.12800
H3045       H  0.25382099  0.24486764  0.03223266     0.11800
H3046       H  0.20187436  0.19347643  0.52670892     0.08900
H3047       H  0.21100989  0.18560236  0.56512063     0.12100
H3048       H  0.24644954  0.22975783  0.57832009     0.14000
C3049       C  0.20718906  0.23089271  0.81932540    -0.01500
C3050       C  0.19747716  0.21712664  0.80765277    -0.09500
C3051       C  0.20185511  0.21157700  0.78521077    -0.18300
C3052       C  0.21621662  0.21965980  0.77377500     0.04000
C3053       C  0.22596426  0.23364529  0.78571949     0.18200
C3054       C  0.22137978  0.23909852  0.80809328    -0.19800
C3055       C  0.24029744  0.24214007  0.77538399    -0.21000
C3056       C  0.24523885  0.23707390  0.75338111    -0.19600
C3057       C  0.23596294  0.22339615  0.74106247     0.19600
C3058       C  0.22130548  0.21444715  0.75100838     0.01700
C3059       C  0.21244155  0.20073347  0.73763333    -0.14300
C3060       C  0.21787197  0.19624079  0.71519825    -0.12000
C3061       C  0.23228592  0.20517491  0.70544462     0.01300
C3062       C  0.24128583  0.21869206  0.71864510    -0.24200
H3063       H  0.18642450  0.21059668  0.81590748     0.09300
H3064       H  0.19377856  0.20092611  0.77735624     0.12800
H3065       H  0.22897599  0.24977147  0.81695988     0.11600
H3066       H  0.24776929  0.25279921  0.78442275     0.12800
H3067       H  0.25640982  0.24394011  0.74588698     0.11800
H3068       H  0.20124863  0.19327838  0.74389309     0.08900
H3069       H  0.21070251  0.18573485  0.70533203     0.12100
H3070       H  0.25245088  0.22569820  0.71121227     0.14000
C3071       C  0.21608962  0.29232054  0.90356938    -0.01500
C3072       C  0.21622723  0.29705691  0.93105958    -0.09500
C3073       C  0.22369426  0.31197279  0.93781962    -0.18300
C3074       C  0.23134023  0.32274618  0.91714081     0.04000
C3075       C  0.23102433  0.31788456  0.88917202     0.18200
C3076       C  0.22349125  0.30280371  0.88269016    -0.19800
C3077       C  0.23821073  0.32810187  0.86782413    -0.21000
C3078       C  0.24563953  0.34308182  0.87357694    -0.19600
C3079       C  0.24620730  0.34822653  0.90088083     0.19600
C3080       C  0.23920196  0.33814085  0.92314617     0.01700
C3081       C  0.24043596  0.34392693  0.95044828    -0.14300
C3082       C  0.24810875  0.35904958  0.95531091    -0.12000
C3083       C  0.25473968  0.36892267  0.93324379     0.01300
C3084       C  0.25377891  0.36343331  0.90606450    -0.24200
H3085       H  0.21055249  0.28916936  0.94756159     0.09300
H3086       H  0.22319910  0.31468400  0.95940715     0.12800
H3087       H  0.22340796  0.29922567  0.86133464     0.11600
H3088       H  0.23801879  0.32448312  0.84647134     0.12800
H3089       H  0.25101325  0.35070444  0.85653428     0.11800
H3090       H  0.23567345  0.33708196  0.96855282     0.08900
H3091       H  0.24878273  0.36303576  0.97651266     0.12100
H3092       H  0.25901853  0.37101498  0.88889123     0.14000
C3093       C  0.35435128  0.45305719  0.76308659    -0.01500
C3094       C  0.34846416  0.46188250  0.77131253    -0.09500
C3095       C  0.33865139  0.45783604  0.79394928    -0.18300
C3096       C  0.33463815  0.44489298  0.80941637     0.04000
C3097       C  0.34067700  0.43603041  0.80076784     0.18200
C3098       C  0.35021237  0.44005995  0.77772363    -0.19800
C3099       C  0.33740713  0.42327471  0.81543533    -0.21000
C3100       C  0.32834569  0.41911793  0.83877354    -0.19600
C3101       C  0.32216674  0.42750971  0.84788122     0.19600
C3102       C  0.32506768  0.44046228  0.83331266     0.01700
C3103       C  0.31826742  0.44832406  0.84343944    -0.14300
C3104       C  0.30903742  0.44348785  0.86700957    -0.12000
C3105       C  0.30635403  0.43075092  0.88125742     0.01300
C3106       C  0.31302147  0.42289217  0.87152703    -0.24200
H3107       H  0.35150374  0.47198588  0.76027896     0.09300
H3108       H  0.33458322  0.46515469  0.79914559     0.12800
H3109       H  0.35479289  0.43321020  0.77165813     0.11600
H3110       H  0.34201666  0.41651530  0.80896229     0.12800
H3111       H  0.32613235  0.40922324  0.84977868     0.11800
H3112       H  0.31979779  0.45817147  0.83347685     0.08900
H3113       H  0.30393883  0.44971015  0.87403262     0.12100
H3114       H  0.31097085  0.41297844  0.88227885     0.14000
C3115       C  0.36083919  0.45448778  0.62946290    -0.01500
C3116       C  0.35594730  0.46386350  0.61965968    -0.09500
C3117       C  0.34605120  0.45973197  0.59726506    -0.18300
C3118       C  0.34059061  0.44593004  0.58393196     0.04000
C3119       C  0.34574943  0.43653127  0.59375184     0.18200
C3120       C  0.35585004  0.44091521  0.61610589    -0.19800
C3121       C  0.34058672  0.42268313  0.58156210    -0.21000
C3122       C  0.33028488  0.41786822  0.55997505    -0.19600
C3123       C  0.32498191  0.42683288  0.54978595     0.19600
C3124       C  0.33010214  0.44103632  0.56147475     0.01700
C3125       C  0.32445426  0.44966788  0.55016746    -0.14300
C3126       C  0.31419916  0.44441565  0.52825845    -0.12000
C3127       C  0.30920117  0.43042748  0.51684017     0.01300
C3128       C  0.31461774  0.42167660  0.52782501    -0.24200
H3129       H  0.35962902  0.47440672  0.62962671     0.09300
H3130       H  0.34272759  0.46750849  0.59117976     0.12800
H3131       H  0.35955636  0.43356858  0.62356492     0.11600
H3132       H  0.34444909  0.41545549  0.58895128     0.12800
H3133       H  0.32644820  0.40704096  0.55114630     0.11800
H3134       H  0.32778951  0.46056343  0.55767868     0.08900
H3135       H  0.31021468  0.45139963  0.52010908     0.12100
H3136       H  0.31082217  0.41082181  0.51913974     0.14000
C3137       C  0.44755727  0.35153786  0.74931828    -0.01500
C3138       C  0.43487367  0.34896224  0.73481679    -0.09500
C3139       C  0.43018314  0.34003709  0.71108051    -0.18300
C3140       C  0.43802514  0.33322940  0.70113333     0.04000
C3141       C  0.45050378  0.33530103  0.71672735     0.18200
C3142       C  0.45526662  0.34455933  0.74037686    -0.19800
C3143       C  0.45819500  0.32820143  0.70850125    -0.21000
C3144       C  0.45386171  0.31920440  0.68490049    -0.19600
C3145       C  0.44193967  0.31735121  0.66858963     0.19600
C3146       C  0.43391074  0.32443113  0.67633401     0.01700
C3147       C  0.42224302  0.32256383  0.65868646    -0.14300
C3148       C  0.41853235  0.31379260  0.63475094    -0.12000
C3149       C  0.42627628  0.30660827  0.62753458     0.01300
C3150       C  0.43802021  0.30848107  0.64447395    -0.24200
H3151       H  0.42869698  0.35418799  0.74143989     0.09300
H3152       H  0.42037002  0.33868231  0.70108628     0.12800
H3153       H  0.46500394  0.34638442  0.75174667     0.11600
H3154       H  0.46761951  0.32960036  0.72042309     0.12800
H3155       H  0.46000951  0.31381492  0.67914860     0.11800
H3156       H  0.41583995  0.32780916  0.66260404     0.08900
H3157       H  0.40945221  0.31256244  0.62190443     0.12100
H3158       H  0.44408321  0.30296651  0.63897151     0.14000
C3159       C  0.45106633  0.35683089  0.88264998    -0.01500
C3160       C  0.46081725  0.35262758  0.89351197    -0.09500
C3161       C  0.45665251  0.34274704  0.91571056    -0.18300
C3162       C  0.44247684  0.33668287  0.92781907     0.04000
C3163       C  0.43263568  0.34103148  0.91669448     0.18200
C3164       C  0.43702699  0.35107765  0.89449276    -0.19800
C3165       C  0.41838427  0.33517528  0.92751613    -0.21000
C3166       C  0.41360496  0.32497112  0.94904416    -0.19600
C3167       C  0.42300971  0.32048773  0.96051430     0.19600
C3168       C  0.43764028  0.32636394  0.95030875     0.01700
C3169       C  0.44674624  0.32164572  0.96313525    -0.14300
C3170       C  0.44146593  0.31142567  0.98490859    -0.12000
C3171       C  0.42697279  0.30552761  0.99452402     0.01300
C3172       C  0.41783260  0.31014918  0.98224018    -0.24200
H3173       H  0.47170122  0.35686141  0.88456393     0.09300
H3174       H  0.46471975  0.33993750  0.92264260     0.12800
H3175       H  0.42938373  0.35421853  0.88608209     0.11600
H3176       H  0.41082633  0.33841929  0.91910692     0.12800
H3177       H  0.40245902  0.32056274  0.95681656     0.11800
H3178       H  0.45802460  0.32569665  0.95695489     0.08900
H3179       H  0.44876806  0.30810208  0.99422684     0.12100
H3180       H  0.40663025  0.30574162  0.98973109     0.14000
C3181       C  0.40814801  0.44432052  0.73183844    -0.01500
C3182       C  0.40975762  0.44381158  0.76083546    -0.09500
C3183       C  0.41699365  0.43693339  0.77220880    -0.18300
C3184       C  0.42304981  0.43039202  0.75481267     0.04000
C3185       C  0.42155422  0.43108854  0.72531185     0.18200
C3186       C  0.41400075  0.43785729  0.71414342    -0.19800
C3187       C  0.42768966  0.42511298  0.70715495    -0.21000
C3188       C  0.43525758  0.41841958  0.71763880    -0.19600
C3189       C  0.43666997  0.41731188  0.74655154     0.19600
C3190       C  0.43053598  0.42321422  0.76560872     0.01700
C3191       C  0.43199813  0.42148098  0.79462453    -0.14300
C3192       C  0.43902816  0.41400543  0.80421356    -0.12000
C3193       C  0.44499393  0.40819453  0.78533449     0.01300
C3194       C  0.44396090  0.41007361  0.75652913    -0.24200
H3195       H  0.40532219  0.44872626  0.77493734     0.09300
H3196       H  0.41776476  0.43706134  0.79469835     0.12800
H3197       H  0.41287716  0.43829303  0.69164872     0.11600
H3198       H  0.42667020  0.42566054  0.68466731     0.12800
H3199       H  0.43989413  0.41391920  0.70301059     0.11800
H3200       H  0.42760518  0.42552743  0.81047904     0.08900
H3201       H  0.43970760  0.41268280  0.82655255     0.12100
H3202       H  0.44848705  0.40552103  0.74175147     0.14000
C3203       C  0.57434662  0.75209508  0.96008038    -0.01500
C3204       C  0.56740485  0.75467554  0.93758261    -0.09500
C3205       C  0.56655862  0.76748126  0.93633944    -0.18300
C3206       C  0.57278731  0.77828051  0.95763394     0.04000
C3207       C  0.57954753  0.77546005  0.98078119     0.18200
C3208       C  0.58023130  0.76244521  0.98183378    -0.19800
C3209       C  0.58577203  0.78573907  0.00252685    -0.21000
C3210       C  0.58557715  0.79886436  0.00166499    -0.19600
C3211       C  0.57924514  0.80209076  0.97894121     0.19600
C3212       C  0.57272158  0.79183336  0.95660888     0.01700
C3213       C  0.56667765  0.79572821  0.93395440    -0.14300
C3214       C  0.56736650  0.80931636  0.93325567    -0.12000
C3215       C  0.57397087  0.81945246  0.95508063     0.01300
C3216       C  0.57969602  0.81568164  0.97810102    -0.24200
H3217       H  0.56272254  0.74680657  0.92058743     0.09300
H3218       H  0.56106074  0.76861755  0.91829516     0.12800
H3219       H  0.58565354  0.76053255  0.99931875     0.11600
H3220       H  0.59091855  0.78365647  0.02025521     0.12800
H3221       H  0.59058117  0.80663105  0.01874531     0.11800
H3222       H  0.56157639  0.78866040  0.91616972     0.08900
H3223       H  0.56291675  0.81200040  0.91519916     0.12100
H3224       H  0.58493293  0.82352118  0.99500473     0.14000
C3225       C  0.75247419  0.83742468  0.87371881    -0.01500
C3226       C  0.74971588  0.84222712  0.84832185    -0.09500
C3227       C  0.75087179  0.85603442  0.84631181    -0.18300
C3228       C  0.75471728  0.86545914  0.86989183     0.04000
C3229       C  0.75755471  0.86049175  0.89555542     0.18200
C3230       C  0.75651886  0.84668594  0.89715379    -0.19800
C3231       C  0.76116082  0.86920518  0.91968145    -0.21000
C3232       C  0.76177874  0.88270099  0.91907817    -0.19600
C3233       C  0.75886247  0.88785271  0.89430446     0.19600
C3234       C  0.75549874  0.87943782  0.86920795     0.01700
C3235       C  0.75277220  0.88528051  0.84475323    -0.14300
C3236       C  0.75260243  0.89848781  0.84561370    -0.12000
C3237       C  0.75534698  0.90639658  0.87066540     0.01300
C3238       C  0.75887759  0.90121256  0.89473422    -0.24200
H3239       H  0.74652629  0.83522726  0.82994628     0.09300
H3240       H  0.74847527  0.85891084  0.82613755     0.12800
H3241       H  0.75857175  0.84300894  0.91696099     0.11600
H3242       H  0.76332561  0.86546251  0.93928912     0.12800
H3243       H  0.76437684  0.88907724  0.93824434     0.11800
H3244       H  0.75046009  0.87978162  0.82476254     0.08900
H3245       H  0.75000310  0.90237368  0.82667077     0.12100
H3246       H  0.76107086  0.90730053  0.91420552     0.14000
C3247       C  0.70128691  0.77210052  0.90427836    -0.01500
C3248       C  0.69205932  0.75791614  0.89389971    -0.09500
C3249       C  0.67728402  0.74990294  0.90201958    -0.18300
C3250       C  0.67122619  0.75590409  0.92084313     0.04000
C3251       C  0.68067657  0.77033338  0.93125559     0.18200
C3252       C  0.69552597  0.77820556  0.92305788    -0.19800
C3253       C  0.67523744  0.77690543  0.94959707    -0.21000
C3254       C  0.66049828  0.76956843  0.95746750    -0.19600
C3255       C  0.65086651  0.75540848  0.94744908     0.19600
C3256       C  0.65611520  0.74824967  0.92935083     0.01700
C3257       C  0.64595258  0.73381258  0.92036518    -0.14300
C3258       C  0.63113711  0.72703768  0.92815965    -0.12000
C3259       C  0.62595408  0.73435518  0.94516609     0.01300
C3260       C  0.63592957  0.74845346  0.95510090    -0.24200
H3261       H  0.69628367  0.75295391  0.87943025     0.09300
H3262       H  0.67088565  0.73910803  0.89299828     0.12800
H3263       H  0.70260771  0.78918106  0.93124005     0.11600
H3264       H  0.68239804  0.78788723  0.95764509     0.12800
H3265       H  0.65658403  0.77505108  0.97137457     0.11800
H3266       H  0.64905599  0.72750071  0.90710997     0.08900
H3267       H  0.62363482  0.71610122  0.92032325     0.12100
H3268       H  0.63200752  0.75416849  0.96838228     0.14000
C3269       C  0.78639273  0.75929332  0.56594605    -0.01500
C3270       C  0.79510997  0.77392242  0.55768516    -0.09500
C3271       C  0.79107774  0.77937009  0.53476795    -0.18300
C3272       C  0.77815754  0.77024365  0.51918313     0.04000
C3273       C  0.76944285  0.75533239  0.52756326     0.18200
C3274       C  0.77357066  0.75005552  0.55078377    -0.19800
C3275       C  0.75666467  0.74574476  0.51271081    -0.21000
C3276       C  0.75227456  0.75064553  0.48968772    -0.19600
C3277       C  0.75891646  0.76459650  0.98392614     0.19600
C3278       C  0.77233649  0.77463517  0.99749977     0.01700
C3279       C  0.78018746  0.78918272  0.98720070    -0.14300
C3280       C  0.77504330  0.79344374  0.96409119    -0.12000
C3281       C  0.76199844  0.78337371  0.95050002     0.01300
C3282       C  0.75396778  0.76900229  0.96064282    -0.24200
H3283       H  0.80509314  0.78123060  0.56906913     0.09300
H3284       H  0.79828336  0.78978727  0.02865414     0.12800
H3285       H  0.76682309  0.73866035  0.55692381     0.11600
H3286       H  0.75001114  0.73436154  0.51894215     0.12800
H3287       H  0.74231653  0.74294669  0.47862940     0.11800
H3288       H  0.79026963  0.79754740  0.99663952     0.08900
H3289       H  0.78133546  0.80466424  0.95678220     0.12100
H3290       H  0.74374563  0.76118919  0.95044546     0.14000
C3291       C  0.78702152  0.75968631  0.69896948    -0.01500
C3292       C  0.79735950  0.76841177  0.71927822    -0.09500
C3293       C  0.79323079  0.77404143  0.74187342    -0.18300
C3294       C  0.77857460  0.77122388  0.74458526     0.04000
C3295       C  0.76825833  0.76262090  0.72341797     0.18200
C3296       C  0.77252500  0.75688908  0.70109008    -0.19800
C3297       C  0.75368715  0.75966799  0.72471127    -0.21000
C3298       C  0.74898512  0.76481067  0.74695306    -0.19600
C3299       C  0.75872736  0.77299703  0.76848983     0.19600
C3300       C  0.77370732  0.77646292  0.76757726     0.01700
C3301       C  0.78304314  0.78482345  0.78993934    -0.14300
C3302       C  0.77760601  0.78919980  0.81250313    -0.12000
C3303       C  0.76276931  0.78547901  0.81346922     0.01300
C3304       C  0.75345909  0.77753955  0.79119650    -0.24200
H3305       H  0.80864436  0.77070577  0.71792423     0.09300
H3306       H  0.80174355  0.78051297  0.75685469     0.12800
H3307       H  0.76452908  0.75027089  0.68518099     0.11600
H3308       H  0.74582349  0.75321660  0.70851197     0.12800
H3309       H  0.73758204  0.76221042  0.74748141     0.11800
H3310       H  0.79453997  0.78800216  0.79080375     0.08900
H3311       H  0.78502735  0.79537946  0.82945326     0.12100
H3312       H  0.74196348  0.77464369  0.79173984     0.14000
C3313       C  0.77663015  0.69776216  0.61738038    -0.01500
C3314       C  0.76935319  0.68717222  0.63810791    -0.09500
C3315       C  0.76112368  0.67225328  0.63098793    -0.18300
C3316       C  0.75986803  0.66756191  0.60273231     0.04000
C3317       C  0.76710733  0.67848167  0.58192661     0.18200
C3318       C  0.77545803  0.69329042  0.58942200    -0.19800
C3319       C  0.76589276  0.67464242  0.55359631    -0.21000
C3320       C  0.75751691  0.66009617  0.54528268    -0.19600
C3321       C  0.75040095  0.64900850  0.56515234     0.19600
C3322       C  0.75162193  0.65251370  0.59421378     0.01700
C3323       C  0.74467368  0.64078114  0.61338222    -0.14300
C3324       C  0.73676320  0.62624513  0.60400825    -0.12000
C3325       C  0.73535488  0.62293912  0.57535877     0.01300
C3326       C  0.74217385  0.63438017  0.55604559    -0.24200
H3327       H  0.76996257  0.69042225  0.65983772     0.09300
H3328       H  0.75571768  0.66470845  0.64792784     0.12800
H3329       H  0.78089261  0.70143476  0.57317972     0.11600
H3330       H  0.77136679  0.68297709  0.53769809     0.12800
H3331       H  0.75669985  0.65749015  0.52314586     0.11800
H3332       H  0.74532136  0.64246112  0.63570297     0.08900
H3333       H  0.73167673  0.61753531  0.61931642     0.12100
H3334       H  0.74130409  0.63187616  0.53384369     0.14000
C3335       C  0.49047742  0.57554441  0.69511570    -0.01500
C3336       C  0.47852299  0.57416870  0.71069845    -0.09500
C3337       C  0.46503372  0.56105822  0.71064651    -0.18300
C3338       C  0.46303127  0.54875992  0.69493599     0.04000
C3339       C  0.47504483  0.55037918  0.67835704     0.18200
C3340       C  0.48857457  0.56367776  0.67857467    -0.19800
C3341       C  0.47358616  0.53861362  0.66212006    -0.21000
C3342       C  0.46053721  0.52515829  0.66235828    -0.19600
C3343       C  0.44860972  0.52309662  0.67889924     0.19600
C3344       C  0.44965181  0.53488168  0.69536973     0.01700
C3345       C  0.43733412  0.53216168  0.71191781    -0.14300
C3346       C  0.42462832  0.51834246  0.71227330    -0.12000
C3347       C  0.42365054  0.50677284  0.69606950     0.01300
C3348       C  0.43567617  0.50925125  0.67929385    -0.24200
H3349       H  0.47968893  0.58318769  0.72358958     0.09300
H3350       H  0.45646074  0.56087216  0.72341817     0.12800
H3351       H  0.49775305  0.56466481  0.66634631     0.11600
H3352       H  0.48266310  0.53978074  0.64933505     0.12800
H3353       H  0.45982499  0.51624561  0.64971444     0.11800
H3354       H  0.43719273  0.54043152  0.72507486     0.08900
H3355       H  0.41550045  0.51670270  0.72542452     0.12100
H3356       H  0.43505947  0.50032482  0.66681312     0.14000
C3357       C  0.53975237  0.64249825  0.77025164    -0.01500
C3358       C  0.53094777  0.63810813  0.79427680    -0.09500
C3359       C  0.53445448  0.64757113  0.81717349    -0.18300
C3360       C  0.54694550  0.66185134  0.81667577     0.04000
C3361       C  0.55545212  0.66645769  0.79169185     0.18200
C3362       C  0.55183849  0.65677582  0.76889090    -0.19800
C3363       C  0.56770841  0.68059130  0.78980635    -0.21000
C3364       C  0.57202899  0.69013092  0.81256434    -0.19600
C3365       C  0.56425880  0.68573295  0.83782980     0.19600
C3366       C  0.55149053  0.67159949  0.84019350     0.01700
C3367       C  0.54409594  0.66770742  0.86625666    -0.14300
C3368       C  0.54945404  0.67723666  0.88917927    -0.12000
C3369       C  0.56224676  0.69095971  0.88692017     0.01300
C3370       C  0.56943376  0.69526224  0.86101632    -0.24200
H3371       H  0.52149437  0.62713915  0.79570341     0.09300
H3372       H  0.52726270  0.64330430  0.83501242     0.12800
H3373       H  0.55859822  0.66029309  0.75018531     0.11600
H3374       H  0.57413964  0.68421934  0.77072231     0.12800
H3375       H  0.58170744  0.70092285  0.81056776     0.11800
H3376       H  0.53433167  0.65726906  0.86983638     0.08900
H3377       H  0.54369264  0.67369431  0.90897202     0.12100
H3378       H  0.57935219  0.70588742  0.85908928     0.14000
C3379       C  0.56680129  0.68979170  0.52397590    -0.01500
C3380       C  0.55211680  0.68337427  0.53279421    -0.09500
C3381       C  0.54690046  0.67329312  0.55481924    -0.18300
C3382       C  0.55628582  0.66928963  0.56881044     0.04000
C3383       C  0.57122363  0.67599400  0.55990485     0.18200
C3384       C  0.57628912  0.68607371  0.53772065    -0.19800
C3385       C  0.58105310  0.67258547  0.57312037    -0.21000
C3386       C  0.57638776  0.66260043  0.59502384    -0.19600
C3387       C  0.56175408  0.65571922  0.60422490     0.19600
C3388       C  0.55145389  0.65892630  0.59127807     0.01700
C3389       C  0.53680163  0.65161064  0.60145083    -0.14300
C3390       C  0.53266006  0.64174299  0.62374820    -0.12000
C3391       C  0.54288821  0.63873326  0.63652544     0.01300
C3392       C  0.55739773  0.64569216  0.62648282    -0.24200
H3393       H  0.54456870  0.68607477  0.52248008     0.09300
H3394       H  0.53547583  0.66882135  0.56034774     0.12800
H3395       H  0.58768332  0.69100526  0.53105911     0.11600
H3396       H  0.59245498  0.67768718  0.56646253     0.12800
H3397       H  0.58429637  0.66022992  0.60483102     0.11800
H3398       H  0.52829383  0.65331870  0.59273034     0.08900
H3399       H  0.52137714  0.63648440  0.63111629     0.12100
H3400       H  0.56541505  0.64347743  0.63631547     0.14000
C3401       C  0.57253738  0.48477718  0.80407645    -0.01500
C3402       C  0.56838349  0.47459022  0.78219256    -0.09500
C3403       C  0.55576863  0.46078765  0.78431038    -0.18300
C3404       C  0.54680175  0.45673430  0.80851905     0.04000
C3405       C  0.55108848  0.46713372  0.83070275     0.18200
C3406       C  0.56392721  0.48091642  0.82841822    -0.19800
C3407       C  0.54234019  0.46386199  0.85472426    -0.21000
C3408       C  0.52910815  0.45066221  0.85678134    -0.19600
C3409       C  0.52447019  0.44028137  0.83513163     0.19600
C3410       C  0.53349038  0.44296155  0.81110181     0.01700
C3411       C  0.52865975  0.43181698  0.79049316    -0.14300
C3412       C  0.51501018  0.41903447  0.79270401    -0.12000
C3413       C  0.50572781  0.41690146  0.81543586     0.01300
C3414       C  0.51068461  0.42737313  0.83700509    -0.24200
H3415       H  0.57481280  0.47737256  0.76311606     0.09300
H3416       H  0.55315832  0.45369070  0.76632573     0.12800
H3417       H  0.56703297  0.48879045  0.84541151     0.11600
H3418       H  0.54557046  0.47172530  0.87174692     0.12800
H3419       H  0.52238288  0.44862435  0.87530974     0.11800
H3420       H  0.53509859  0.43268794  0.77224136     0.08900
H3421       H  0.51150763  0.41098061  0.77599597     0.12100
H3422       H  0.50363958  0.42567236  0.85491239     0.14000
C3423       C  0.63339111  0.53133016  0.72542023    -0.01500
C3424       C  0.64592252  0.52979245  0.72591888    -0.09500
C3425       C  0.65525575  0.53370564  0.70261315    -0.18300
C3426       C  0.65246121  0.53962644  0.67829370     0.04000
C3427       C  0.63968397  0.54109296  0.67808176     0.18200
C3428       C  0.63022641  0.53671311  0.70121255    -0.19800
C3429       C  0.63663857  0.54741738  0.65519159    -0.21000
C3430       C  0.64634418  0.55290730  0.63283133    -0.19600
C3431       C  0.65913651  0.55186267  0.63249518     0.19600
C3432       C  0.66214167  0.54473173  0.65468623     0.01700
C3433       C  0.67483713  0.54330131  0.65241255    -0.14300
C3434       C  0.68455511  0.54947800  0.62991090    -0.12000
C3435       C  0.68198427  0.55731705  0.60916605     0.01300
C3436       C  0.66910259  0.55819787  0.61028646    -0.24200
H3437       H  0.64862692  0.52574076  0.74450979     0.09300
H3438       H  0.66481380  0.53244123  0.70460086     0.12800
H3439       H  0.62065366  0.53812780  0.70078521     0.11600
H3440       H  0.62689082  0.54852953  0.65495651     0.12800
H3441       H  0.64389932  0.55814884  0.61580225     0.11800
H3442       H  0.67758184  0.53755184  0.66775125     0.08900
H3443       H  0.69435325  0.54847271  0.62918326     0.12100
H3444       H  0.66690197  0.56399478  0.59395666     0.14000
C3445       C  0.63617961  0.54162408  0.86364377    -0.01500
C3446       C  0.64388635  0.55657300  0.87035910    -0.09500
C3447       C  0.65340902  0.56168687  0.89329247    -0.18300
C3448       C  0.65552781  0.55190328  0.91034383     0.04000
C3449       C  0.64760764  0.53671123  0.90346143     0.18200
C3450       C  0.63800297  0.53172469  0.88037915    -0.19800
C3451       C  0.64944105  0.52659804  0.91943956    -0.21000
C3452       C  0.65921255  0.53128566  0.94191150    -0.19600
C3453       C  0.66723339  0.54617864  0.94918444     0.19600
C3454       C  0.66534397  0.55667426  0.93374170     0.01700
C3455       C  0.67336701  0.57151617  0.94238568    -0.14300
C3456       C  0.68296786  0.57576084  0.96511754    -0.12000
C3457       C  0.68499757  0.56547319  0.97998645     0.01300
C3458       C  0.67710411  0.55066146  0.97193398    -0.24200
H3459       H  0.64264546  0.56442144  0.85769446     0.09300
H3460       H  0.65902683  0.57333800  0.89682713     0.12800
H3461       H  0.63202320  0.52011477  0.87531149     0.11600
H3462       H  0.64339734  0.51499521  0.91432999     0.12800
H3463       H  0.66049839  0.52320289  0.95368531     0.11800
H3464       H  0.67243205  0.58011586  0.93225004     0.08900
H3465       H  0.69095062  0.58700759  0.46779525     0.12100
H3466       H  0.67850483  0.54260541  0.98355671     0.14000
C3467       C  0.59013310  0.55335701  0.78083131    -0.01500
C3468       C  0.57849159  0.55231640  0.79695912    -0.09500
C3469       C  0.57175021  0.56049512  0.79008850    -0.18300
C3470       C  0.57631504  0.56980528  0.76640431     0.04000
C3471       C  0.58804496  0.57065599  0.74999057     0.18200
C3472       C  0.59497853  0.56270618  0.75761632    -0.19800
C3473       C  0.59252075  0.57909655  0.72557326    -0.21000
C3474       C  0.58527266  0.58636971  0.71653263    -0.19600
C3475       C  0.57368368  0.58576947  0.73216658     0.19600
C3476       C  0.56935647  0.57789082  0.75782568     0.01700
C3477       C  0.55819674  0.57839616  0.77362659    -0.14300
C3478       C  0.55113798  0.58577043  0.76364502    -0.12000
C3479       C  0.55488004  0.59280225  0.73761446     0.01300
C3480       C  0.56631551  0.59293409  0.72216399    -0.24200
H3481       H  0.57450045  0.54506153  0.81486645     0.09300
H3482       H  0.56271668  0.55895808  0.80321761     0.12800
H3483       H  0.60386457  0.56341321  0.74480399     0.11600
H3484       H  0.60144847  0.57976876  0.71297158     0.12800
H3485       H  0.58874897  0.59249792  0.69714119     0.11800
H3486       H  0.55472418  0.57325712  0.79382586     0.08900
H3487       H  0.54252047  0.58575901  0.77621628     0.12100
H3488       H  0.56947829  0.59860471  0.70224862     0.14000
C3489       C  0.95733660  0.54832332  0.76913120    -0.01500
C3490       C  0.96111652  0.54857405  0.74091410    -0.09500
C3491       C  0.97583410  0.55621051  0.73231598    -0.18300
C3492       C  0.98738265  0.56388544  0.75181940     0.04000
C3493       C  0.98350273  0.56340818  0.78052226     0.18200
C3494       C  0.96861826  0.55571168  0.78885975    -0.19800
C3495       C  0.99449831  0.57066507  0.80075246    -0.21000
C3496       C  0.00929495  0.57831706  0.79317761    -0.19600
C3497       C  0.01349591  0.57898852  0.76514607     0.19600
C3498       C  0.00261587  0.57192753  0.74396515     0.01700
C3499       C  0.00749846  0.57324640  0.71590192    -0.14300
C3500       C  0.02252269  0.58098131  0.70931200    -0.12000
C3501       C  0.03318394  0.58759117  0.73034948     0.01300
C3502       C  0.02856356  0.58663891  0.75821447    -0.24200
H3503       H  0.95261518  0.54296391  0.72523577     0.09300
H3504       H  0.97779169  0.55588227  0.71026142     0.12800
H3505       H  0.96581153  0.55555792  0.81075896     0.11600
H3506       H  0.99163821  0.57037080  0.82264645     0.12800
H3507       H  0.01752699  0.58373771  0.80940542     0.11800
H3508       H  0.99999889  0.56843458  0.69855528     0.08900
H3509       H  0.02581337  0.58165378  0.68761383     0.12100
H3510       H  0.03673358  0.59188315  0.77462339     0.14000
C3511       C  0.08981292  0.83782488  0.85242093    -0.01500
C3512       C  0.09997546  0.84074924  0.83085517    -0.09500
C3513       C  0.11317689  0.85418198  0.82971478    -0.18300
C3514       C  0.11670634  0.86510156  0.85046744     0.04000
C3515       C  0.10623993  0.86206179  0.87212112     0.18200
C3516       C  0.09293757  0.84862858  0.87271609    -0.19800
C3517       C  0.10920825  0.87231343  0.89346785    -0.21000
C3518       C  0.12248509  0.88548409  0.89412675    -0.19600
C3519       C  0.13308390  0.88880121  0.87331585     0.19600
C3520       C  0.13031264  0.87877738  0.85093101     0.01700
C3521       C  0.14136932  0.88284886  0.83026944    -0.14300
C3522       C  0.15472357  0.89609512  0.83226639    -0.12000
C3523       C  0.15751687  0.90568868  0.85482635     0.01300
C3524       C  0.14655711  0.90204284  0.87506157    -0.24200
H3525       H  0.09779290  0.83254363  0.81492770     0.09300
H3526       H  0.12048565  0.85557307  0.81264743     0.12800
H3527       H  0.08516597  0.84641628  0.88957054     0.11600
H3528       H  0.10127432  0.87004335  0.91002151     0.12800
H3529       H  0.12451714  0.89310044  0.91117386     0.11800
H3530       H  0.14008492  0.87600307  0.81244509     0.08900
H3531       H  0.16301946  0.89870494  0.81630683     0.12100
H3532       H  0.14859743  0.90944424  0.89251970     0.14000
C3533       C  0.17710359  0.75175978  0.97007706    -0.01500
C3534       C  0.18837130  0.75319311  0.95227218    -0.09500
C3535       C  0.20231472  0.76576989  0.95311768    -0.18300
C3536       C  0.20536582  0.77749919  0.97160611     0.04000
C3537       C  0.19389098  0.77593210  0.98973969     0.18200
C3538       C  0.18005737  0.76303914  0.98921407    -0.19800
C3539       C  0.19607626  0.78748159  0.00746453    -0.21000
C3540       C  0.20917776  0.80084595  0.00660081    -0.19600
C3541       C  0.22060157  0.80281122  0.98869668     0.19600
C3542       C  0.21911468  0.79098423  0.97180352     0.01700
C3543       C  0.23136090  0.79330321  0.95544508    -0.14300
C3544       C  0.24410107  0.80709090  0.95433775    -0.12000
C3545       C  0.24504951  0.81895842  0.96944905     0.01300
C3546       C  0.23340718  0.81664868  0.98714257    -0.24200
H3547       H  0.18632788  0.74465027  0.93721393     0.09300
H3548       H  0.21029256  0.76620974  0.93830851     0.12800
H3549       H  0.17135996  0.76206447  0.00293489     0.11600
H3550       H  0.18739101  0.78634967  0.02138014     0.12800
H3551       H  0.21032760  0.80975494  0.01983871     0.11800
H3552       H  0.23139586  0.78470449  0.94315680     0.08900
H3553       H  0.25309694  0.80855585  0.94097875     0.12100
H3554       H  0.23418412  0.82572400  0.99936166     0.14000
C3555       C  0.09555844  0.64021015  0.64582420    -0.01500
C3556       C  0.10902712  0.64359058  0.63348033    -0.09500
C3557       C  0.11488953  0.65369625  0.61151980    -0.18300
C3558       C  0.10740405  0.66079432  0.60111165     0.04000
C3559       C  0.09385269  0.65747446  0.61406880     0.18200
C3560       C  0.08810166  0.64729396  0.63608857    -0.19800
C3561       C  0.08602830  0.66425208  0.60487415    -0.21000
C3562       C  0.09124710  0.67414386  0.58279660    -0.19600
C3563       C  0.10440838  0.67749053  0.56924532     0.19600
C3564       C  0.11274600  0.67093669  0.57822647     0.01700
C3565       C  0.12592739  0.67468816  0.56360703    -0.14300
C3566       C  0.13044722  0.68430147  0.54081464    -0.12000
C3567       C  0.12209041  0.69057706  0.53190118     0.01300
C3568       C  0.10915452  0.68722204  0.54644869    -0.24200
H3569       H  0.11505829  0.63834479  0.64075274     0.09300
H3570       H  0.12526872  0.65568107  0.60309659     0.12800
H3571       H  0.07772118  0.64484053  0.64562908     0.11600
H3572       H  0.07572779  0.66181457  0.61473217     0.12800
H3573       H  0.08485389  0.67911392  0.57609345     0.11800
H3574       H  0.13289858  0.67024868  0.56905056     0.08900
H3575       H  0.14048935  0.68672332  0.52993554     0.12100
H3576       H  0.10258780  0.69200112  0.53970064     0.14000
C3577       C  0.09512922  0.63742258  0.78051030    -0.01500
C3578       C  0.10837137  0.64037027  0.79325595    -0.09500
C3579       C  0.11364533  0.64949636  0.81684816    -0.18300
C3580       C  0.10569094  0.65585696  0.82854578     0.04000
C3581       C  0.09202531  0.65238861  0.81591279     0.18200
C3582       C  0.08699384  0.64339540  0.79208990    -0.19800
C3583       C  0.08342252  0.65792863  0.82704139    -0.21000
C3584       C  0.08815314  0.66701902  0.85040469    -0.19600
C3585       C  0.10171848  0.67099081  0.86292383     0.19600
C3586       C  0.11075040  0.66554284  0.85218168     0.01700
C3587       C  0.12454538  0.67028844  0.86526093    -0.14300
C3588       C  0.12920145  0.68014767  0.88776626    -0.12000
C3589       C  0.12021426  0.68541689  0.89817356     0.01300
C3590       C  0.10641544  0.68064047  0.88586357    -0.24200
H3591       H  0.11474528  0.63571245  0.78481031     0.09300
H3592       H  0.12392653  0.65130246  0.82551942     0.12800
H3593       H  0.07659817  0.64095850  0.78259862     0.11600
H3594       H  0.07295022  0.65522125  0.81757727     0.12800
H3595       H  0.08124179  0.67115348  0.85849329     0.11800
H3596       H  0.13210715  0.66680760  0.85825059     0.08900
H3597       H  0.13992612  0.68372406  0.89698048     0.12100
H3598       H  0.09944131  0.68476885  0.89368381     0.14000
C3599       C  0.11474496  0.74074040  0.93619159    -0.01500
C3600       C  0.10673152  0.74389828  0.95569421    -0.09500
C3601       C  0.09937233  0.75130563  0.94773714    -0.18300
C3602       C  0.09966462  0.75572952  0.91969795     0.04000
C3603       C  0.10789244  0.75257315  0.89995103     0.18200
C3604       C  0.11539981  0.74523860  0.90835525    -0.19800
C3605       C  0.10839719  0.75656066  0.87185862    -0.21000
C3606       C  0.10064472  0.76333563  0.86278148    -0.19600
C3607       C  0.09230613  0.76643576  0.88160417     0.19600
C3608       C  0.09189021  0.76291896  0.91044848     0.01700
C3609       C  0.08362106  0.76667153  0.92868960    -0.14300
C3610       C  0.07589102  0.77334114  0.91859448    -0.12000
C3611       C  0.07603373  0.77641824  0.89006161     0.01300
C3612       C  0.08432189  0.77299628  0.87169444    -0.24200
H3613       H  0.10607222  0.74055441  0.97732170     0.09300
H3614       H  0.09338474  0.75320241  0.96399454     0.12800
H3615       H  0.12154174  0.74279477  0.89307431     0.11600
H3616       H  0.11467816  0.75424371  0.85670130     0.12800
H3617       H  0.10111729  0.76610694  0.84082199     0.11800
H3618       H  0.08291208  0.76463926  0.95087797     0.08900
H3619       H  0.06965053  0.77599267  0.93323058     0.12100
H3620       H  0.08464091  0.77553412  0.84962834     0.14000
C3621       C  0.91091259  0.75405003  0.62440928    -0.01500
C3622       C  0.90340036  0.75000596  0.64998941    -0.09500
C3623       C  0.89008580  0.74988249  0.65342608    -0.18300
C3624       C  0.88379159  0.75376327  0.63116726     0.04000
C3625       C  0.89176291  0.75836192  0.60557905     0.18200
C3626       C  0.90514758  0.75845953  0.60246261    -0.19800
C3627       C  0.88619421  0.76255368  0.58300443    -0.21000
C3628       C  0.87268979  0.76199377  0.58502334    -0.19600
C3629       C  0.86433656  0.75707369  0.60956338     0.19600
C3630       C  0.86978049  0.75297531  0.63310617     0.01700
C3631       C  0.86076085  0.74789557  0.65722546    -0.14300
C3632       C  0.84678879  0.74653264  0.65757635    -0.12000
C3633       C  0.84140055  0.75031314  0.63412201     0.01300
C3634       C  0.85036264  0.75585661  0.61038988    -0.24200
H3635       H  0.90767026  0.74660394  0.66729682     0.09300
H3636       H  0.88491520  0.74652202  0.67364062     0.12800
H3637       H  0.91091271  0.76164068  0.58259858     0.11600
H3638       H  0.89225714  0.76614219  0.56350802     0.12800
H3639       H  0.86861647  0.76516649  0.56704457     0.11800
H3640       H  0.86403935  0.74459435  0.67596159     0.08900
H3641       H  0.84007727  0.74228410  0.67620324     0.12100
H3642       H  0.84627395  0.75882423  0.59213625     0.14000
C3643       C  0.02292034  0.78606836  0.92585248    -0.01500
C3644       C  0.02228298  0.79689771  0.94195707    -0.09500
C3645       C  0.01287228  0.79308034  0.96510420    -0.18300
C3646       C  0.00381671  0.77821473  0.97296554     0.04000
C3647       C  0.00474954  0.76733415  0.95673338     0.18200
C3648       C  0.01411832  0.77132200  0.93343525    -0.19800
C3649       C  0.99636389  0.75249206  0.96383890    -0.21000
C3650       C  0.98692971  0.74813410  0.98665623    -0.19600
C3651       C  0.98598006  0.75890729  0.50252611     0.19600
C3652       C  0.99440118  0.77413767  0.49624838     0.01700
C3653       C  0.99239627  0.78400343  0.51345999    -0.14300
C3654       C  0.98259164  0.77892070  0.53609401    -0.12000
C3655       C  0.97469664  0.76393888  0.54251630     0.01300
C3656       C  0.97643675  0.75402464  0.52557922    -0.24200
H3657       H  0.02912492  0.80838940  0.93669123     0.09300
H3658       H  0.01421179  0.80253912  0.47794128     0.12800
H3659       H  0.01469113  0.76287123  0.92133994     0.11600
H3660       H  0.99711000  0.74417258  0.95164685     0.12800
H3661       H  0.98059413  0.73654280  0.99160873     0.11800
H3662       H  0.99812413  0.79567291  0.50977337     0.08900
H3663       H  0.98133733  0.78676356  0.54885124     0.12100
H3664       H  0.97019670  0.74237955  0.53019786     0.14000
C3665       C  0.97714542  0.76300657  0.67471579    -0.01500
C3666       C  0.98486442  0.77792245  0.68198329    -0.09500
C3667       C  0.99506627  0.78298117  0.70401018    -0.18300
C3668       C  0.99784880  0.77319358  0.71963208     0.04000
C3669       C  0.99009594  0.75809896  0.71185090     0.18200
C3670       C  0.97992710  0.75319740  0.68963602    -0.19800
C3671       C  0.99241202  0.74790994  0.72643703    -0.21000
C3672       C  0.00213973  0.75231689  0.74890050    -0.19600
C3673       C  0.00979868  0.76702888  0.75740601     0.19600
C3674       C  0.00786426  0.77773589  0.74284659     0.01700
C3675       C  0.01589609  0.79244092  0.75247168    -0.14300
C3676       C  0.02514501  0.79623103  0.77588196    -0.12000
C3677       C  0.02684294  0.78558332  0.79028282     0.01300
C3678       C  0.01925877  0.77103601  0.78068657    -0.24200
H3679       H  0.98296980  0.78573633  0.67065143     0.09300
H3680       H  0.00052538  0.79458898  0.70838928     0.12800
H3681       H  0.97404567  0.74163618  0.68411004     0.11600
H3682       H  0.98656700  0.73640347  0.72054984     0.12800
H3683       H  0.00358693  0.74411592  0.75987022     0.11800
H3684       H  0.01516133  0.80124026  0.74254496     0.08900
H3685       H  0.03098415  0.80757426  0.78278382     0.12100
H3686       H  0.02050660  0.76271906  0.79170361     0.14000
C3687       C  0.81899001  0.57737909  0.53579512    -0.01500
C3688       C  0.81477190  0.58208580  0.51193276    -0.09500
C3689       C  0.80129936  0.58181793  0.51104827    -0.18300
C3690       C  0.79162110  0.57688257  0.53425764     0.04000
C3691       C  0.79592135  0.57191824  0.55822895     0.18200
C3692       C  0.80944181  0.57218468  0.55874019    -0.19800
C3693       C  0.78678217  0.56683189  0.58173988    -0.21000
C3694       C  0.77339543  0.56653972  0.58205538    -0.19600
C3695       C  0.76886267  0.57141818  0.55894030     0.19600
C3696       C  0.77789552  0.57673783  0.53470042     0.01700
C3697       C  0.77282849  0.58180570  0.51220822    -0.14300
C3698       C  0.75939316  0.58160069  0.51386414    -0.12000
C3699       C  0.75057434  0.57626396  0.53779306     0.01300
C3700       C  0.75536219  0.57113982  0.56015568    -0.24200
H3701       H  0.82199130  0.58614034  0.49391611     0.09300
H3702       H  0.79882575  0.58561032  0.49198934     0.12800
H3703       H  0.81265438  0.56856462  0.57732261     0.11600
H3704       H  0.79001853  0.56305745  0.60005931     0.12800
H3705       H  0.76656571  0.56253747  0.60060950     0.11800
H3706       H  0.77904911  0.58613708  0.49321380     0.08900
H3707       H  0.75595391  0.58574945  0.49642325     0.12100
H3708       H  0.74866692  0.56714656  0.57889158     0.14000
C3709       C  0.87376054  0.56582847  0.60721861    -0.01500
C3710       C  0.88771239  0.57498208  0.61877430    -0.09500
C3711       C  0.89258835  0.57062078  0.64193144    -0.18300
C3712       C  0.88365752  0.55677506  0.65445407     0.04000
C3713       C  0.86947456  0.54742846  0.64270225     0.18200
C3714       C  0.86463534  0.55203100  0.61929802    -0.19800
C3715       C  0.86024693  0.53359951  0.65445386    -0.21000
C3716       C  0.86482978  0.52882875  0.67754742    -0.19600
C3717       C  0.87875411  0.53776871  0.68950957     0.19600
C3718       C  0.88833427  0.55190802  0.67815784     0.01700
C3719       C  0.90223443  0.56058592  0.69099630    -0.14300
C3720       C  0.90645490  0.55547887  0.71397957    -0.12000
C3721       C  0.89710302  0.54153810  0.72500602     0.01300
C3722       C  0.88322716  0.53268106  0.71270635    -0.24200
H3723       H  0.89492902  0.58573914  0.61001921     0.09300
H3724       H  0.90344041  0.57842492  0.64945279     0.12800
H3725       H  0.85378485  0.54489174  0.61051992     0.11600
H3726       H  0.84941390  0.52640566  0.64568722     0.12800
H3727       H  0.85743639  0.51805737  0.68608377     0.11800
H3728       H  0.91019022  0.57140467  0.68385016     0.08900
H3729       H  0.91725781  0.56250027  0.72301226     0.12100
H3730       H  0.87591353  0.52187169  0.72120615     0.14000
C3731       C  0.87201471  0.56780406  0.97115605    -0.01500
C3732       C  0.86220453  0.55416813  0.95917842    -0.09500
C3733       C  0.86627978  0.54896788  0.93579554    -0.18300
C3734       C  0.88044728  0.55726286  0.92369492     0.04000
C3735       C  0.89025083  0.57121612  0.93570896     0.18200
C3736       C  0.88596369  0.57633097  0.95908695    -0.19800
C3737       C  0.90436947  0.57993903  0.92456275    -0.21000
C3738       C  0.90913161  0.57499644  0.90205100    -0.19600
C3739       C  0.89991101  0.56119033  0.89012337     0.19600
C3740       C  0.88536134  0.55216334  0.90048939     0.01700
C3741       C  0.87651243  0.53835317  0.88743289    -0.14300
C3742       C  0.88203485  0.53359979  0.86558574    -0.12000
C3743       C  0.89649389  0.54241182  0.85596704     0.01300
C3744       C  0.90528409  0.55628281  0.86810788    -0.24200
H3745       H  0.85131449  0.54743585  0.96799281     0.09300
H3746       H  0.85814244  0.53836490  0.92785448     0.12800
H3747       H  0.89361843  0.58693268  0.96815096     0.11600
H3748       H  0.91185983  0.59061185  0.93352982     0.12800
H3749       H  0.92019516  0.58196068  0.89413167     0.11800
H3750       H  0.86533088  0.53090996  0.89377734     0.08900
H3751       H  0.87497068  0.52289682  0.85633635     0.12100
H3752       H  0.91644004  0.56325446  0.86059928     0.14000
C3753       C  0.92076176  0.70327774  0.59245455    -0.01500
C3754       C  0.91608730  0.69890116  0.56486511    -0.09500
C3755       C  0.90787554  0.68407000  0.55771508    -0.18300
C3756       C  0.90397792  0.67301915  0.57811582     0.04000
C3757       C  0.90849490  0.67752158  0.60624820     0.18200
C3758       C  0.91686744  0.69252864  0.61311013    -0.19800
C3759       C  0.90472340  0.66702110  0.62731980    -0.21000
C3760       C  0.89671186  0.65211050  0.62102942    -0.19600
C3761       C  0.89237791  0.64732168  0.59346868     0.19600
C3762       C  0.89591230  0.65769566  0.57158250     0.01700
C3763       C  0.89144775  0.65226058  0.54404064    -0.14300
C3764       C  0.88414282  0.63721998  0.53843630    -0.12000
C3765       C  0.88080887  0.62709395  0.56001935     0.01300
C3766       C  0.88474197  0.63219033  0.58756959    -0.24200
H3767       H  0.91893430  0.70700853  0.54854115     0.09300
H3768       H  0.90478695  0.68165508  0.53601804     0.12800
H3769       H  0.92036477  0.69584237  0.63456664     0.11600
H3770       H  0.90806084  0.67036410  0.64881734     0.12800
H3771       H  0.89404739  0.64426249  0.63780424     0.11800
H3772       H  0.89362309  0.65931974  0.52626127     0.08900
H3773       H  0.88108681  0.63348904  0.51702501     0.12100
H3774       H  0.88221168  0.62437334  0.60437004     0.14000
C3775       C  0.82018204  0.24243278  0.54436774    -0.01500
C3776       C  0.80987616  0.23957936  0.56559419    -0.09500
C3777       C  0.79614363  0.22670101  0.56528807    -0.18300
C3778       C  0.79228380  0.21616856  0.54362554     0.04000
C3779       C  0.80283435  0.21915385  0.52217217     0.18200
C3780       C  0.81654343  0.23219022  0.52265976    -0.19800
C3781       C  0.79974035  0.20902543  0.50050581    -0.21000
C3782       C  0.78642593  0.19586658  0.49977523    -0.19600
C3783       C  0.77581638  0.19253037  0.52059743     0.19600
C3784       C  0.77848827  0.20269191  0.54267118     0.01700
C3785       C  0.76728284  0.19880863  0.56293167    -0.14300
C3786       C  0.75428889  0.18519807  0.56191566    -0.12000
C3787       C  0.75195185  0.17503949  0.54067300     0.01300
C3788       C  0.76264848  0.17892272  0.51974968    -0.24200
H3789       H  0.81249185  0.24727853  0.58272304     0.09300
H3790       H  0.78887613  0.22523972  0.58248331     0.12800
H3791       H  0.82450939  0.23425321  0.50625916     0.11600
H3792       H  0.80774686  0.21123154  0.48412694     0.12800
H3793       H  0.78445407  0.18818873  0.48287515     0.11800
H3794       H  0.76828682  0.20596639  0.58002644     0.08900
H3795       H  0.74614699  0.18249664  0.57822554     0.12100
H3796       H  0.76092050  0.17115447  0.50315318     0.14000
C3797       C  0.90681898  0.15369546  0.64138474    -0.01500
C3798       C  0.89655249  0.15092779  0.66267639    -0.09500
C3799       C  0.88350762  0.13735750  0.66437566    -0.18300
C3800       C  0.88025644  0.12606963  0.64458167     0.04000
C3801       C  0.89097837  0.12879859  0.62362903     0.18200
C3802       C  0.90408706  0.14243762  0.62234354    -0.19800
C3803       C  0.88839105  0.11805372  0.60352577    -0.21000
C3804       C  0.87514095  0.10481310  0.60308607    -0.19600
C3805       C  0.86415436  0.10191894  0.62285285     0.19600
C3806       C  0.86664016  0.11236291  0.64426403     0.01700
C3807       C  0.85523393  0.10873229  0.66395760    -0.14300
C3808       C  0.84178823  0.09558433  0.66181492    -0.12000
C3809       C  0.83920351  0.08559671  0.64007558     0.01300
C3810       C  0.85055615  0.08874237  0.62093658    -0.24200
H3811       H  0.89844477  0.15941595  0.67775780     0.09300
H3812       H  0.87606356  0.13615968  0.68106056     0.12800
H3813       H  0.91201078  0.14443058  0.60590095     0.11600
H3814       H  0.89656274  0.12002730  0.58762779     0.12800
H3815       H  0.87338521  0.09686206  0.58686758     0.11800
H3816       H  0.85627982  0.11590467  0.68105067     0.08900
H3817       H  0.83323347  0.09338134  0.67697081     0.12100
H3818       H  0.84871478  0.08103901  0.60414451     0.14000
C3819       C  0.92112142  0.21785096  0.60818476    -0.01500
C3820       C  0.92053081  0.22764417  0.62736699    -0.09500
C3821       C  0.91417271  0.23609383  0.62005036    -0.18300
C3822       C  0.90810059  0.23499182  0.59310568     0.04000
C3823       C  0.90837287  0.22474744  0.57392391     0.18200
C3824       C  0.91499996  0.21644735  0.58146178    -0.19800
C3825       C  0.90192886  0.22276765  0.54741443    -0.21000
C3826       C  0.89499291  0.23056740  0.53967257    -0.19600
C3827       C  0.89472234  0.24087735  0.55790526     0.19600
C3828       C  0.90158964  0.24351500  0.58464094     0.01700
C3829       C  0.90172786  0.25464909  0.60159761    -0.14300
C3830       C  0.89493854  0.26247350  0.59269932    -0.12000
C3831       C  0.88760790  0.25932740  0.56692276     0.01300
C3832       C  0.88759455  0.24856803  0.54955629    -0.24200
H3833       H  0.92509841  0.22886404  0.64820151     0.09300
H3834       H  0.91402075  0.24324861  0.63608572     0.12800
H3835       H  0.91533555  0.20883449  0.56651342     0.11600
H3836       H  0.90206241  0.21496611  0.53269745     0.12800
H3837       H  0.88989275  0.22859602  0.51917452     0.11800
H3838       H  0.90707823  0.25765104  0.62174570     0.08900
H3839       H  0.89507422  0.27076216  0.60644029     0.12100
H3840       H  0.88204649  0.24620288  0.52944419     0.14000
C3841       C  0.24046890  0.41867662  0.95343888    -0.01500
C3842       C  0.23782283  0.42631242  0.93239587    -0.09500
C3843       C  0.22486518  0.42703959  0.93209095    -0.18300
C3844       C  0.21393071  0.42000693  0.95288173     0.04000
C3845       C  0.21664580  0.41227510  0.97429869     0.18200
C3846       C  0.22984618  0.41175223  0.97448894    -0.19800
C3847       C  0.20607241  0.40493677  0.99514278    -0.21000
C3848       C  0.19276235  0.40491811  0.99496547    -0.19600
C3849       C  0.18969282  0.41231112  0.97403687     0.19600
C3850       C  0.20030993  0.42013038  0.95288440     0.01700
C3851       C  0.19672540  0.42756506  0.93244868    -0.14300
C3852       C  0.18301191  0.42678666  0.93238466    -0.12000
C3853       C  0.17241239  0.41870001  0.95270727     0.01300
C3854       C  0.17593955  0.41170109  0.97381301    -0.24200
H3855       H  0.24579750  0.43170039  0.91583843     0.09300
H3856       H  0.22367949  0.43304863  0.91503688     0.12800
H3857       H  0.23172171  0.40570609  0.99077259     0.11600
H3858       H  0.20803951  0.39902003  0.01154580     0.12800
H3859       H  0.18475477  0.39897150  0.01121311     0.11800
H3860       H  0.20420785  0.43395787  0.91599266     0.08900
H3861       H  0.18060521  0.43236652  0.91597028     0.12100
H3862       H  0.16781812  0.40543065  0.98969922     0.14000
C3863       C  0.08367204  0.23890198  0.87650938    -0.01500
C3864       C  0.09135940  0.24132006  0.85126784    -0.09500
C3865       C  0.10457115  0.24102453  0.85020938    -0.18300
C3866       C  0.11064855  0.23854134  0.87466564     0.04000
C3867       C  0.10263193  0.23589257  0.90008371     0.18200
C3868       C  0.08923211  0.23587929  0.90066086    -0.19800
C3869       C  0.10823061  0.23372563  0.92506946    -0.21000
C3870       C  0.12182959  0.23446070  0.92559438    -0.19600
C3871       C  0.13007858  0.23716996  0.90106953     0.19600
C3872       C  0.12455170  0.23901704  0.87510969     0.01700
C3873       C  0.13333026  0.24151502  0.85094697    -0.14300
C3874       C  0.14720431  0.24265853  0.85277997    -0.12000
C3875       C  0.15267680  0.24118346  0.87856724     0.01300
C3876       C  0.14395956  0.23824171  0.90252827    -0.24200
H3877       H  0.08727162  0.24369366  0.83231355     0.09300
H3878       H  0.10993915  0.24314725  0.83014701     0.12800
H3879       H  0.08339960  0.23408166  0.92032202     0.11600
H3880       H  0.10217105  0.23172681  0.94449171     0.12800
H3881       H  0.12597664  0.23300268  0.94540377     0.11800
H3882       H  0.12983958  0.24273637  0.83041785     0.08900
H3883       H  0.15371282  0.24478679  0.83392868     0.12100
H3884       H  0.14811937  0.23706936  0.92257371     0.14000
C3885       C  0.97283677  0.20638682  0.56477668    -0.01500
C3886       C  0.97750372  0.19690561  0.55437209    -0.09500
C3887       C  0.98723313  0.20105093  0.53160606    -0.18300
C3888       C  0.99247148  0.21482760  0.51837389     0.04000
C3889       C  0.98754133  0.22427660  0.52904666     0.18200
C3890       C  0.97794841  0.22003839  0.55197640    -0.19800
C3891       C  0.99212767  0.23793513  0.51674447    -0.21000
C3892       C  0.99574388  0.24017154  0.99143144    -0.19600
C3893       C  0.00216292  0.23200347  0.98224386     0.19600
C3894       C  0.99952466  0.21913473  0.99683294     0.01700
C3895       C  0.00629335  0.21131265  0.98646413    -0.14300
C3896       C  0.01541599  0.21618734  0.96288967    -0.12000
C3897       C  0.01809392  0.22896191  0.94889383     0.01300
C3898       C  0.01132636  0.23674192  0.95859255    -0.24200
H3899       H  0.97365654  0.18626887  0.56390334     0.09300
H3900       H  0.99037182  0.19322730  0.52472446     0.12800
H3901       H  0.97430211  0.22740590  0.55971943     0.11600
H3902       H  0.98837455  0.24515249  0.52481717     0.12800
H3903       H  0.99770333  0.24997420  0.98038522     0.11800
H3904       H  0.00484020  0.20145055  0.99619576     0.08900
H3905       H  0.02055566  0.21001378  0.95580349     0.12100
H3906       H  0.01333432  0.24665401  0.94788717     0.14000
C3907       C  0.97061798  0.20912978  0.69963325    -0.01500
C3908       C  0.97595046  0.22331103  0.71037799    -0.09500
C3909       C  0.98563779  0.22835324  0.73314291    -0.18300
C3910       C  0.99034167  0.21928826  0.74602942     0.04000
C3911       C  0.98466824  0.20480132  0.73536754     0.18200
C3912       C  0.97494975  0.19989414  0.71237589    -0.19800
C3913       C  0.98875283  0.19528906  0.74764851    -0.21000
C3914       C  0.99837351  0.19983473  0.77034960    -0.19600
C3915       C  0.00425151  0.21405159  0.78123560     0.19600
C3916       C  0.00041036  0.22403565  0.76912224     0.01700
C3917       C  0.00687451  0.23835340  0.78058996    -0.14300
C3918       C  0.01652459  0.24246735  0.80331792    -0.12000
C3919       C  0.02009755  0.23254115  0.81544741     0.01300
C3920       C  0.01396433  0.21834507  0.80422158    -0.24200
H3921       H  0.97269463  0.23063554  0.70101832     0.09300
H3922       H  0.98920009  0.23936512  0.74012411     0.12800
H3923       H  0.97079284  0.18886493  0.70432091     0.11600
H3924       H  0.98445032  0.18422701  0.73966639     0.12800
H3925       H  0.00126929  0.19217545  0.77941034     0.11800
H3926       H  0.00475739  0.24665157  0.77247894     0.08900
H3927       H  0.02118290  0.25353249  0.81150685     0.12100
H3928       H  0.01673944  0.21061622  0.81338401     0.14000
C3929       C  0.07264146  0.29015504  0.90329436    -0.01500
C3930       C  0.07339733  0.29481051  0.93103592    -0.09500
C3931       C  0.08083648  0.30973437  0.93779795    -0.18300
C3932       C  0.08789619  0.32053140  0.91687391     0.04000
C3933       C  0.08721280  0.31567910  0.88877473     0.18200
C3934       C  0.07960104  0.30063664  0.88228071    -0.19800
C3935       C  0.09401916  0.32586089  0.86723980    -0.21000
C3936       C  0.10139041  0.34082631  0.87289998    -0.19600
C3937       C  0.10216106  0.34597999  0.90024501     0.19600
C3938       C  0.09549538  0.33593540  0.92270468     0.01700
C3939       C  0.09665356  0.34178638  0.94992873    -0.14300
C3940       C  0.10388418  0.35693394  0.95449256    -0.12000
C3941       C  0.11029748  0.36672638  0.93223277     0.01300
C3942       C  0.10949259  0.36117275  0.90520190    -0.24200
H3943       H  0.06800367  0.28687012  0.94758645     0.09300
H3944       H  0.08078604  0.31243898  0.95956080     0.12800
H3945       H  0.07907710  0.29707434  0.86076017     0.11600
H3946       H  0.09356575  0.32222362  0.84581186     0.12800
H3947       H  0.10647061  0.34843419  0.85571955     0.11800
H3948       H  0.09202108  0.33497412  0.96812901     0.08900
H3949       H  0.10443618  0.36100234  0.97558485     0.12100
H3950       H  0.11440603  0.36870653  0.88784088     0.14000
C3951       C  0.90664474  0.41913219  0.80953516    -0.01500
C3952       C  0.91497577  0.43012275  0.82915420    -0.09500
C3953       C  0.91450757  0.44316945  0.82997023    -0.18300
C3954       C  0.90578807  0.44577067  0.81074734     0.04000
C3955       C  0.89729088  0.43454765  0.79093723     0.18200
C3956       C  0.89757778  0.42130449  0.79085125    -0.19800
C3957       C  0.88896460  0.43680803  0.77068554    -0.21000
C3958       C  0.88924548  0.45015813  0.76910598    -0.19600
C3959       C  0.89755616  0.46145891  0.78819385     0.19600
C3960       C  0.90560579  0.45928094  0.80980929     0.01700
C3961       C  0.91326854  0.47080429  0.82931576    -0.14300
C3962       C  0.91355900  0.48415994  0.82657113    -0.12000
C3963       C  0.90627968  0.48653409  0.80437806     0.01300
C3964       C  0.89805751  0.47502930  0.78553410    -0.24200
H3965       H  0.92215251  0.42876165  0.84366008     0.09300
H3966       H  0.92147016  0.45118166  0.84529725     0.12800
H3967       H  0.89122534  0.41293626  0.77535204     0.11600
H3968       H  0.88247786  0.42831919  0.75548987     0.12800
H3969       H  0.88297458  0.45167960  0.75273008     0.11800
H3970       H  0.91919025  0.46987113  0.84687534     0.08900
H3971       H  0.91983979  0.49281573  0.84160539     0.12100
H3972       H  0.89223458  0.47671082  0.76848020     0.14000
C3973       C  0.89321151  0.35336951  0.73443204    -0.01500
C3974       C  0.88635552  0.35624836  0.71215236    -0.09500
C3975       C  0.88030278  0.34640149  0.68976635    -0.18300
C3976       C  0.88092365  0.33326619  0.68898875     0.04000
C3977       C  0.88751783  0.33021914  0.71213318     0.18200
C3978       C  0.89360263  0.34024799  0.73441955    -0.19800
C3979       C  0.88823487  0.31729092  0.71273223    -0.21000
C3980       C  0.88290967  0.30746392  0.69045723    -0.19600
C3981       C  0.87686230  0.31038748  0.66691685     0.19600
C3982       C  0.87559044  0.32322390  0.66588257     0.01700
C3983       C  0.86948124  0.32563389  0.64137910    -0.14300
C3984       C  0.86555643  0.31609979  0.61841533    -0.12000
C3985       C  0.86730475  0.30375620  0.61935051     0.01300
C3986       C  0.87255667  0.30075555  0.64397012    -0.24200
H3987       H  0.88586760  0.36629700  0.71177858     0.09300
H3988       H  0.87533981  0.34945296  0.67330598     0.12800
H3989       H  0.89880745  0.33788774  0.75169370     0.11600
H3990       H  0.89313809  0.31485302  0.73040306     0.12800
H3991       H  0.88383905  0.29765835  0.69138002     0.11800
H3992       H  0.86797150  0.33498018  0.63899972     0.08900
H3993       H  0.86139083  0.31855184  0.59965759     0.12100
H3994       H  0.87392960  0.29120183  0.64486689     0.14000
C3995       C  0.90122871  0.35580802  0.86564394    -0.01500
C3996       C  0.91118844  0.35215715  0.87761673    -0.09500
C3997       C  0.90693576  0.34220664  0.89979191    -0.18300
C3998       C  0.89247807  0.33555645  0.91083686     0.04000
C3999       C  0.88235802  0.33912589  0.89822759     0.18200
C4000       C  0.88677953  0.34910474  0.87587706    -0.19800
C4001       C  0.86790219  0.33285442  0.90819209    -0.21000
C4002       C  0.86331647  0.32334459  0.93085926    -0.19600
C4003       C  0.87302977  0.31976030  0.94403282     0.19600
C4004       C  0.88771645  0.32566061  0.93408348     0.01700
C4005       C  0.89697152  0.32148095  0.94805995    -0.14300
C4006       C  0.89188637  0.31202070  0.97107914    -0.12000
C4007       C  0.87746642  0.30642060  0.98096006     0.01300
C4008       C  0.86810388  0.31032138  0.96723337    -0.24200
H4009       H  0.92238229  0.35706712  0.86986922     0.09300
H4010       H  0.91525001  0.34003896  0.90795314     0.12800
H4011       H  0.87894327  0.35172510  0.86652114     0.11600
H4012       H  0.86011658  0.33546036  0.89858161     0.12800
H4013       H  0.85208753  0.31881438  0.93824635     0.11800
H4014       H  0.90820302  0.32535546  0.94176798     0.08900
H4015       H  0.89891792  0.30927974  0.48056462     0.12100
H4016       H  0.85690342  0.30600718  0.97466136     0.14000
C4017       C  0.08238406  0.50607543  0.69266550    -0.01500
C4018       C  0.09213760  0.51670223  0.71160402    -0.09500
C4019       C  0.09345545  0.53060349  0.71290643    -0.18300
C4020       C  0.08483275  0.53423866  0.69544550     0.04000
C4021       C  0.07512186  0.52343002  0.67601128     0.18200
C4022       C  0.07409677  0.50961596  0.67465103    -0.19800
C4023       C  0.06618570  0.52630344  0.65845153    -0.21000
C4024       C  0.06636566  0.53956768  0.66020202    -0.19600
C4025       C  0.07555467  0.55033499  0.67943604     0.19600
C4026       C  0.08513585  0.54798634  0.69703503     0.01700
C4027       C  0.09431767  0.55938742  0.71580043    -0.14300
C4028       C  0.09350871  0.57224966  0.71778253    -0.12000
C4029       C  0.08367155  0.57423095  0.70101152     0.01300
C4030       C  0.07494864  0.56333658  0.68152632    -0.24200
H4031       H  0.09866930  0.51420545  0.72574000     0.09300
H4032       H  0.10108917  0.53814369  0.72815609     0.12800
H4033       H  0.06646026  0.50142161  0.66004013     0.11600
H4034       H  0.05879587  0.51811961  0.64356874     0.12800
H4035       H  0.05910755  0.54134063  0.64663806     0.11800
H4036       H  0.10209195  0.55862281  0.72945883     0.08900
H4037       H  0.10048438  0.58060092  0.73279442     0.12100
H4038       H  0.06736252  0.56481298  0.66833971     0.14000
C4039       C  0.09115264  0.44856910  0.75781722    -0.01500
C4040       C  0.08301900  0.43394422  0.76654432    -0.09500
C4041       C  0.08773632  0.42891508  0.78908087    -0.18300
C4042       C  0.10086658  0.43841288  0.80377415     0.04000
C4043       C  0.10924665  0.45319113  0.79448639     0.18200
C4044       C  0.10431168  0.45812790  0.77181073    -0.19800
C4045       C  0.12245235  0.46297492  0.80800353    -0.21000
C4046       C  0.12746897  0.45845464  0.83077644    -0.19600
C4047       C  0.11933800  0.44406863  0.84082933     0.19600
C4048       C  0.10592084  0.43382589  0.82742208     0.01700
C4049       C  0.09804943  0.41948510  0.83852841    -0.14300
C4050       C  0.10316642  0.41554463  0.86201989    -0.12000
C4051       C  0.11632506  0.42564702  0.87529697     0.01300
C4052       C  0.12444898  0.43989064  0.86443030    -0.24200
H4053       H  0.07282026  0.42634168  0.75607629     0.09300
H4054       H  0.08080596  0.41752297  0.79447922     0.12800
H4055       H  0.11069718  0.46947136  0.76515296     0.11600
H4056       H  0.12893567  0.47423511  0.80096303     0.12800
H4057       H  0.13771352  0.46632468  0.84079572     0.11800
H4058       H  0.08779847  0.41104841  0.82974792     0.08900
H4059       H  0.09670840  0.40444748  0.86987553     0.12100
H4060       H  0.13467016  0.44778045  0.87451900     0.14000
C4061       C  0.09043246  0.45283746  0.62383991    -0.01500
C4062       C  0.10466375  0.46235794  0.61383897    -0.09500
C4063       C  0.11046606  0.45829255  0.59137739    -0.18300
C4064       C  0.10219116  0.44442426  0.57820349     0.04000
C4065       C  0.08773686  0.43482200  0.58846694     0.18200
C4066       C  0.08199033  0.43913463  0.61082975    -0.19800
C4067       C  0.07914583  0.42086110  0.57664000    -0.21000
C4068       C  0.08460723  0.41614062  0.55491575    -0.19600
C4069       C  0.09873974  0.42531735  0.54420967     0.19600
C4070       C  0.10773472  0.43964618  0.55548000     0.01700
C4071       C  0.12184219  0.44850308  0.54344588    -0.14300
C4072       C  0.12679203  0.44327633  0.52137901    -0.12000
C4073       C  0.11790625  0.42909574  0.51061239     0.01300
C4074       C  0.10388987  0.42020393  0.52217405    -0.24200
H4075       H  0.11143016  0.47298537  0.62360418     0.09300
H4076       H  0.12152666  0.46616653  0.58506659     0.12800
H4077       H  0.07098970  0.43164765  0.61850278     0.11600
H4078       H  0.06814499  0.41347668  0.58440453     0.12800
H4079       H  0.07769517  0.40522061  0.54636886     0.11800
H4080       H  0.12927813  0.45953702  0.55051435     0.08900
H4081       H  0.13763404  0.45038704  0.51269080     0.12100
H4082       H  0.09359701  0.40839899  0.01121869     0.14000
C4083       C  0.95676414  0.40608075  0.76773807    -0.01500
C4084       C  0.95928834  0.40558364  0.73907701    -0.09500
C4085       C  0.97358639  0.41276062  0.72830904    -0.18300
C4086       C  0.98591123  0.42087493  0.74596677     0.04000
C4087       C  0.98325968  0.42130324  0.77510654     0.18200
C4088       C  0.96880959  0.41387188  0.78568658    -0.19800
C4089       C  0.99503540  0.42920355  0.79352964    -0.21000
C4090       C  0.00942747  0.43675185  0.78368019    -0.19600
C4091       C  0.01241892  0.43653458  0.75518069     0.19600
C4092       C  0.00074167  0.42859026  0.73583522     0.01700
C4093       C  0.00447319  0.42871813  0.70727442    -0.14300
C4094       C  0.01917904  0.43621287  0.69849599    -0.12000
C4095       C  0.03059838  0.44388002  0.71776883     0.01300
C4096       C  0.02709917  0.44412359  0.74600473    -0.24200
H4097       H  0.95013622  0.39952250  0.72484216     0.09300
H4098       H  0.97459855  0.41179387  0.70606491     0.12800
H4099       H  0.96692658  0.41430102  0.80791461     0.11600
H4100       H  0.99310008  0.42957943  0.81573498     0.12800
H4101       H  0.01830239  0.44277336  0.79850641     0.11800
H4102       H  0.99631528  0.42303406  0.69123738     0.08900
H4103       H  0.02162446  0.43589597  0.67654919     0.12100
H4104       H  0.03587885  0.45002682  0.76108630     0.14000
loop_ 
_geom_bond_atom_site_label_1 
_geom_bond_atom_site_label_2 
_geom_bond_distance 
_geom_bond_site_symmetry_2 
_ccdc_geom_bond_type 
In1           O3   2.248       .  S
In1           O4   2.253       .  S
In1          O12   2.256       .  S
In1           O6   2.258       .  S
In1           O8   2.255       .  S
In1           O9   2.250       .  S
In1          O10   2.236       .  S
In1          O13   2.247       .  S
C2            O8   1.263       .  A
C2           O10   1.261       .  A
C2         C2043   1.478       .  S
O3           C11   1.261       .  A
O4           C11   1.261       .  A
C5           O12   1.260       .  A
C5            O6   1.260       .  A
C5         C2009   1.483       .  S
C7            O9   1.260       .  A
C7           O13   1.261       .  A
C7         C1965   1.479       .  S
C11        C1987   1.480       .  S
In14         O16   2.244       .  S
In14         O17   2.248       .  S
In14         O25   2.254       .  S
In14         O19   2.239       .  S
In14         O21   2.255       .  S
In14         O22   2.255       .  S
In14         O23   2.248       .  S
In14         O26   2.258       .  S
C15          O21   1.260       .  A
C15          O23   1.258       .  A
C15        C2031   1.477       .  S
O16          C24   1.260       .  A
O17          C24   1.262       .  A
C18          O25   1.262       .  A
C18          O19   1.260       .  A
C18        C1943   1.479       .  S
C20          O22   1.260       .  A
C20          O26   1.261       .  A
C20        C1899   1.482       .  S
C24        C1921   1.477       .  S
In27         O29   2.231       .  S
In27         O30   2.261       .  S
In27         O38   2.270       .  S
In27         O32   2.240       .  S
In27         O34   2.249       .  S
In27         O35   2.245       .  S
In27         O36   2.245       .  S
In27         O39   2.248       .  S
C28          O34   1.261       .  A
C28          O36   1.260       .  A
C28        C1877   1.477       .  S
O29          C37   1.260       .  A
O30          C37   1.263       .  A
C31          O38   1.262       .  A
C31          O32   1.259       .  A
C31        C1867   1.483       .  S
C33          O35   1.260       .  A
C33          O39   1.260       .  A
C33        C1811   1.476       .  S
C37        C1845   1.480       .  S
In40         O42   2.234       .  S
In40         O43   2.274       .  S
In40         O51   2.245       .  S
In40         O47   2.247       .  S
In40         O48   2.255       .  S
In40         O49   2.239       .  S
In40         O52   2.256       .  S
In40       O2097   2.269       .  S
C41          O47   1.263       .  A
C41          O49   1.262       .  A
C41        C1889   1.477       .  S
O42          C50   1.259       .  A
O43          C50   1.263       .  A
C44          O45   1.261       .  A
C44        O2103   1.258       .  A
C44        C2021   1.481   1_556  S
O45       In2092   2.260       .  S
C46          O48   1.261       .  A
C46          O52   1.260       .  A
C46        C1801   1.483       .  S
C50        C1999   1.482       .  S
O51        C2096   1.258       .  A
In53         O55   2.235       .  S
In53         O56   2.268       .  S
In53         O64   2.268       .  S
In53         O58   2.249       .  S
In53         O60   2.247       .  S
In53         O61   2.243       .  S
In53         O62   2.257       .  S
In53         O65   2.267       .  S
C54          O60   1.262       .  A
C54          O62   1.262       .  A
C54        C1767   1.481       .  S
O55          C63   1.258       .  A
O56          C63   1.261       .  A
C57          O64   1.260       .  A
C57          O58   1.259       .  A
C57        C1855   1.483       .  S
C59          O61   1.260       .  A
C59          O65   1.261       .  A
C59        C1745   1.483       .  S
C63        C1833   1.477       .  S
In66         O68   2.240       .  S
In66         O69   2.258       .  S
In66         O77   2.264       .  S
In66         O71   2.252       .  S
In66         O73   2.241       .  S
In66         O74   2.259       .  S
In66         O75   2.254       .  S
In66         O78   2.241       .  S
C67          O73   1.261       .  A
C67          O75   1.261       .  A
C67        C1779   1.477       .  S
O68          C76   1.259       .  A
O69          C76   1.262       .  A
C70        O2129   1.260       .  A
C70        O2123   1.260       .  A
C70        C1955   1.481       .  S
O71        C2122   1.259       .  A
C72          O74   1.260       .  A
C72          O78   1.259       .  A
C72        C1723   1.478       .  S
C76        C1933   1.478       .  S
O77        C2122   1.260       .  A
In79         O81   2.245       .  S
In79         O82   2.247       .  S
In79         O90   2.255       .  S
In79         O84   2.245       .  S
In79         O86   2.244       .  S
In79         O87   2.262       .  S
In79         O88   2.244       .  S
In79         O91   2.231       .  S
C80          O86   1.261       .  A
C80          O88   1.260       .  A
C80        C1713   1.474       .  S
O81          C89   1.259       .  A
O82          C89   1.261       .  A
C83          O90   1.262   1_556  A
C83          O84   1.260   1_556  A
C83        C3731   1.480       .  S
C85          O87   1.263       .  A
C85          O91   1.260       .  A
C85        C1657   1.479       .  S
C89        C1635   1.477       .  S
In92         O94   2.254       .  S
In92         O95   2.249       .  S
In92        O103   2.252       .  S
In92         O97   2.250       .  S
In92         O99   2.250       .  S
In92        O100   2.232       .  S
In92        O101   2.236       .  S
In92        O104   2.265       .  S
C93          O99   1.263       .  A
C93         O101   1.261       .  A
C93        C1701   1.476       .  S
O94         C102   1.259       .  A
O95         C102   1.260       .  A
C96         O103   1.261       .  A
C96          O97   1.261       .  A
C96        C1613   1.481       .  S
C98         O100   1.259       .  A
C98         O104   1.262       .  A
C98        C1603   1.478       .  S
C102       C1569   1.479       .  S
In105       O107   2.250       .  S
In105       O108   2.254       .  S
In105       O116   2.263       .  S
In105       O110   2.254       .  S
In105       O112   2.235       .  S
In105       O113   2.258       .  S
In105       O114   2.250       .  S
In105       O117   2.238       .  S
C106        O112   1.263       .  A
C106        O114   1.263       .  A
C106       C1547   1.478       .  S
O107        C115   1.260       .  A
O108        C115   1.261       .  A
C109       O2168   1.260   1_554  A
C109       O2162   1.259   1_554  A
C109       C1515   1.482       .  S
O110       C2161   1.259       .  A
C111        O113   1.261       .  A
C111        O117   1.258       .  A
C111       C1537   1.476       .  S
C115       C1481   1.480       .  S
O116       C2161   1.260       .  A
In118       O120   2.251       .  S
In118       O121   2.246       .  S
In118       O129   2.262       .  S
In118       O123   2.250       .  S
In118       O125   2.256       .  S
In118       O126   2.258       .  S
In118       O127   2.243       .  S
In118       O130   2.236       .  S
C119        O125   1.261       .  A
C119        O127   1.258       .  A
C119       C1559   1.476       .  S
O120        C128   1.260       .  A
O121        C128   1.261       .  A
C122        O129   1.261       .  A
C122        O123   1.259       .  A
C122       C1625   1.481       .  S
C124        O126   1.263       .  A
C124        O130   1.262       .  A
C124       C1591   1.480       .  S
C128       C1459   1.479       .  S
In131       O133   2.241       .  S
In131       O134   2.261       .  S
In131       O142   2.254       .  S
In131       O136   2.248       .  S
In131       O138   2.258       .  S
In131       O139   2.264       .  S
In131       O140   2.246       .  S
In131       O143   2.225       .  S
C132        O138   1.263       .  A
C132        O140   1.261       .  A
C132       C1437   1.482       .  S
O133        C141   1.260       .  A
O134        C141   1.262       .  A
C135        O142   1.261       .  A
C135        O136   1.260       .  A
C135       C1691   1.480       .  S
C137        O139   1.263       .  A
C137        O143   1.259       .  A
C137       C1669   1.477       .  S
C141       C1911   1.480       .  S
In144       O146   2.240       .  S
In144       O147   2.253       .  S
In144       O155   2.263       .  S
In144       O149   2.255       .  S
In144       O151   2.257       .  S
In144       O152   2.253       .  S
In144       O153   2.249       .  S
In144       O156   2.226       .  S
C145        O151   1.263       .  A
C145        O153   1.260       .  A
C145       C1449   1.481       .  S
O146        C154   1.260       .  A
O147        C154   1.261       .  A
C148        O155   1.259       .  A
C148        O149   1.259       .  A
C148       C1503   1.482       .  S
C150        O152   1.263       .  A
C150        O156   1.260       .  A
C150       C1525   1.474       .  S
C154       C1977   1.478       .  S
In157       O159   2.269       .  S
In157       O160   2.221       .  S
In157       O168   2.254       .  S
In157       O162   2.245       .  S
In157       O164   2.252       .  S
In157       O165   2.256       .  S
In157       O166   2.245       .  S
In157       O169   2.242       .  S
C158        O164   1.260       .  A
C158        O166   1.258       .  A
C158       C1415   1.475       .  S
O159        C167   1.264       .  A
O160        C167   1.260       .  A
C161        O168   1.259       .  A
C161        O162   1.260       .  A
C161       C1393   1.477       .  S
C163        O165   1.260       .  A
C163        O169   1.258       .  A
C163       C1349   1.476       .  S
C167       C1371   1.479       .  S
In170       O172   2.246       .  S
In170       O173   2.248       .  S
In170       O181   2.256       .  S
In170       O175   2.241       .  S
In170       O177   2.251       .  S
In170       O178   2.244       .  S
In170       O179   2.242       .  S
In170       O182   2.263       .  S
C171        O177   1.261       .  A
C171        O179   1.259       .  A
C171       C1427   1.476       .  S
O172        C180   1.259       .  A
O173        C180   1.260       .  A
C174        O181   1.262       .  A
C174        O175   1.260       .  A
C174       C1339   1.479       .  S
C176        O178   1.260       .  A
C176        O182   1.262       .  A
C176       C1283   1.482       .  S
C180       C1305   1.474       .  S
In183       O185   2.238       .  S
In183       O186   2.248       .  S
In183       O194   2.257       .  S
In183       O188   2.224       .  S
In183       O190   2.258       .  S
In183       O191   2.256       .  S
In183       O192   2.238       .  S
In183       O195   2.237       .  S
C184        O190   1.259       .  A
C184        O192   1.257       .  A
C184       C1273   1.475       .  S
O185        C193   1.262       .  A
O186        C193   1.263       .  A
C187        O194   1.263       .  A
C187        O188   1.261       .  A
C187       C3457   1.476   1_554  S
C189        O191   1.259       .  A
C189        O195   1.259       .  A
C189       C1647   1.477       .  S
C193       C1383   1.477       .  S
In196       O198   2.235       .  S
In196       O199   2.253       .  S
In196       O207   2.250       .  S
In196       O201   2.239       .  S
In196       O203   2.261       .  S
In196       O204   2.236       .  S
In196       O205   2.218       .  S
In196       O208   2.255       .  S
C197        O203   1.263       .  A
C197        O205   1.259       .  A
C197       C1261   1.475       .  S
O198        C206   1.258       .  A
O199        C206   1.261       .  A
C200        O207   1.259       .  A
C200        O201   1.258       .  A
C200       C1239   1.472       .  S
C202        O204   1.261       .  A
C202        O208   1.262       .  A
C202       C1581   1.479       .  S
C206       C1217   1.474       .  S
In209       O211   2.261       .  S
In209       O212   2.233       .  S
In209       O220   2.252       .  S
In209       O214   2.242       .  S
In209       O216   2.246       .  S
In209       O217   2.243       .  S
In209       O218   2.244       .  S
In209       O221   2.259       .  S
C210        O216   1.261       .  A
C210        O218   1.260       .  A
C210       C1195   1.476       .  S
O211        C219   1.262       .  A
O212        C219   1.258       .  A
C213        O220   1.262       .  A
C213        O214   1.260       .  A
C213       C1251   1.478       .  S
C215        O217   1.260       .  A
C215        O221   1.261       .  A
C215       C1173   1.480       .  S
C219       C1229   1.477       .  S
In222       O224   2.252       .  S
In222       O225   2.236       .  S
In222       O233   2.254       .  S
In222       O229   2.242       .  S
In222       O230   2.240       .  S
In222       O231   2.253       .  S
In222       O234   2.256       .  S
In222      O2279   2.246       .  S
C223        O229   1.259       .  A
C223        O231   1.260       .  A
C223       C1207   1.476       .  S
O224        C232   1.262       .  A
O225        C232   1.261       .  A
C226        O227   1.260   1_554  A
C226       O2285   1.261   1_554  A
C226       C1327   1.480       .  S
O227      In2274   2.248       .  S
C228        O230   1.259       .  A
C228        O234   1.259       .  A
C228       C1151   1.476       .  S
C232       C1317   1.476       .  S
O233       C2278   1.261       .  A
In235       O237   2.254       .  S
In235       O238   2.228       .  S
In235       O246   2.233       .  S
In235       O240   2.257       .  S
In235       O242   2.248       .  S
In235       O243   2.263       .  S
In235       O244   2.238       .  S
In235       O247   2.229       .  S
C236        O242   1.264       .  A
C236        O244   1.260       .  A
C236       C1141   1.477       .  S
O237        C245   1.262       .  A
O238        C245   1.261       .  A
C239        O246   1.259       .  A
C239        O240   1.261       .  A
C239       C1107   1.476       .  S
C241        O243   1.261       .  A
C241        O247   1.259       .  A
C241       C1085   1.476       .  S
C245       C1361   1.476       .  S
In248       O250   2.258       .  S
In248       O251   2.249       .  S
In248       O259   2.262       .  S
In248       O253   2.251       .  S
In248       O255   2.255       .  S
In248       O256   2.269       .  S
In248       O257   2.242       .  S
In248       O260   2.240       .  S
C249        O255   1.262       .  A
C249        O257   1.260       .  A
C249       C1129   1.478       .  S
O250        C258   1.261       .  A
O251        C258   1.261       .  A
C252        O259   1.260       .  A
C252        O253   1.259       .  A
C252       C1063   1.482       .  S
C254        O256   1.262       .  A
C254        O260   1.260       .  A
C254       C1041   1.483       .  S
C258       C1295   1.482       .  S
In261       O263   2.253       .  S
In261       O264   2.228       .  S
In261       O272   2.249       .  S
In261       O266   2.262       .  S
In261       O268   2.247       .  S
In261       O269   2.252       .  S
In261       O270   2.251       .  S
In261       O273   2.240       .  S
C262        O268   1.263       .  A
C262        O270   1.261       .  A
C262       C1019   1.479       .  S
O263        C271   1.262       .  A
O264        C271   1.259       .  A
C265        O272   1.259       .  A
C265        O266   1.261       .  A
C265        C997   1.481       .  S
C267        O269   1.259       .  A
C267        O273   1.259       .  A
C267        C975   1.474       .  S
C271       C1823   1.474       .  S
In274       O276   2.260       .  S
In274       O277   2.264       .  S
In274       O285   2.270       .  S
In274       O281   2.249       .  S
In274       O282   2.238       .  S
In274       O283   2.251       .  S
In274       O286   2.279       .  S
In274      O2331   2.259       .  S
C275        O281   1.261       .  A
C275        O283   1.261       .  A
C275       C1031   1.478       .  S
O276        C284   1.260       .  A
O277        C284   1.261       .  A
C278        O279   1.257       .  A
C278       O2337   1.261       .  A
C278       C1075   1.484   1_556  S
O279      In2326   2.250       .  S
C280        O282   1.259       .  A
C280        O286   1.263       .  A
C280       C1053   1.484       .  S
C284       C1789   1.483       .  S
O285       C2330   1.260       .  A
In287       O289   2.257       .  S
In287       O290   2.250       .  S
In287       O298   2.260       .  S
In287       O292   2.242       .  S
In287       O294   2.253       .  S
In287       O295   2.251       .  S
In287       O296   2.235       .  S
In287       O299   2.243       .  S
C288        O294   1.262       .  A
C288        O296   1.260       .  A
C288        C953   1.476       .  S
O289        C297   1.262       .  A
O290        C297   1.260       .  A
C291        O298   1.262       .  A
C291        O292   1.259       .  A
C291       C3171   1.479   1_554  S
C293        O295   1.262       .  A
C293        O299   1.260       .  A
C293       C1097   1.478       .  S
C297        C931   1.482       .  S
In300       O302   2.261       .  S
In300       O303   2.243       .  S
In300       O311   2.256       .  S
In300       O305   2.267       .  S
In300       O307   2.254       .  S
In300       O308   2.262       .  S
In300       O309   2.237       .  S
In300       O312   2.234       .  S
C301        O307   1.264       .  A
C301        O309   1.260       .  A
C301        C965   1.476       .  S
O302        C310   1.262       .  A
O303        C310   1.262       .  A
C304        O311   1.260       .  A
C304        O305   1.260       .  A
C304       C1009   1.484       .  S
C306        O308   1.263       .  A
C306        O312   1.260       .  A
C306        C987   1.479       .  S
C310        C909   1.483       .  S
In313       O315   2.251       .  S
In313       O316   2.256       .  S
In313       O324   2.253       .  S
In313       O318   2.261       .  S
In313       O320   2.252       .  S
In313       O321   2.244       .  S
In313       O322   2.258       .  S
In313       O325   2.246       .  S
C314        O320   1.260       .  A
C314        O322   1.258       .  A
C314        C887   1.479       .  S
O315        C323   1.260       .  A
O316        C323   1.261       .  A
C317       O2376   1.261       .  A
C317       O2370   1.262       .  A
C317        C877   1.482       .  S
O318       C2369   1.261   1_554  A
C319        O321   1.262       .  A
C319        O325   1.261       .  A
C319        C855   1.477       .  S
C323       C1735   1.481       .  S
O324       C2369   1.260   1_554  A
In326       O328   2.258       .  S
In326       O329   2.254       .  S
In326       O337   2.258       .  S
In326       O331   2.243       .  S
In326       O333   2.252       .  S
In326       O334   2.273       .  S
In326       O335   2.245       .  S
In326       O338   2.243       .  S
C327        O333   1.262       .  A
C327        O335   1.262       .  A
C327        C899   1.480       .  S
O328        C336   1.260       .  A
O329        C336   1.261       .  A
C330        O337   1.260       .  A
C330        O331   1.259       .  A
C330        C821   1.479       .  S
C332        O334   1.261       .  A
C332        O338   1.258       .  A
C332        C799   1.482       .  S
C336       C1757   1.482       .  S
In339       O341   2.251       .  S
In339       O342   2.248       .  S
In339       O350   2.263       .  S
In339       O344   2.248       .  S
In339       O346   2.257       .  S
In339       O347   2.264       .  S
In339       O348   2.242       .  S
In339       O351   2.228       .  S
C340        O346   1.262       .  A
C340        O348   1.259       .  A
C340        C777   1.479       .  S
O341        C349   1.261       .  A
O342        C349   1.261       .  A
C343        O350   1.261       .  A
C343        O344   1.259       .  A
C343        C833   1.480       .  S
C345        O347   1.262       .  A
C345        O351   1.259       .  A
C345        C811   1.478       .  S
C349       C1185   1.479       .  S
In352       O354   2.248       .  S
In352       O355   2.245       .  S
In352       O363   2.247       .  S
In352       O359   2.253       .  S
In352       O360   2.263       .  S
In352       O361   2.233       .  S
In352       O364   2.229       .  S
In352      O2409   2.254       .  S
C353        O359   1.263       .  A
C353        O361   1.260       .  A
C353        C789   1.477       .  S
O354        C362   1.259       .  A
O355        C362   1.260       .  A
C356        O357   1.260       .  A
C356       O2415   1.261       .  A
C356        C733   1.481   1_556  S
O357      In2404   2.251       .  S
C358        O360   1.262       .  A
C358        O364   1.259       .  A
C358        C755   1.476       .  S
C362       C1163   1.476       .  S
O363       C2408   1.260       .  A
In365       O367   2.254       .  S
In365       O368   2.245       .  S
In365       O376   2.249       .  S
In365       O370   2.246       .  S
In365       O372   2.258       .  S
In365       O373   2.253       .  S
In365       O374   2.237       .  S
In365       O377   2.232       .  S
C366        O372   1.261       .  A
C366        O374   1.260       .  A
C366        C711   1.478       .  S
O367        C375   1.262       .  A
O368        C375   1.260       .  A
C369        O376   1.260       .  A
C369        O370   1.258       .  A
C369        C745   1.476       .  S
C371        O373   1.261       .  A
C371        O377   1.260       .  A
C371        C767   1.475       .  S
C375        C689   1.480       .  S
In378       O380   2.248       .  S
In378       O381   2.276       .  S
In378       O389   2.255       .  S
In378       O383   2.244       .  S
In378       O385   2.263       .  S
In378       O386   2.241       .  S
In378       O387   2.249       .  S
In378       O390   2.256       .  S
C379        O385   1.259       .  A
C379        O387   1.259       .  A
C379        C723   1.478       .  S
O380        C388   1.257       .  A
O381        C388   1.261       .  A
C382        O389   1.263       .  A
C382        O383   1.261       .  A
C382        C865   1.481       .  S
C384        O386   1.261       .  A
C384        O390   1.264       .  A
C384        C843   1.479       .  S
C388        C667   1.484       .  S
In391       O393   2.246       .  S
In391       O394   2.245       .  S
In391       O402   2.264       .  S
In391       O396   2.237       .  S
In391       O398   2.253       .  S
In391       O399   2.252       .  S
In391       O400   2.268       .  S
In391       O403   2.259       .  S
C392        O398   1.258       .  A
C392        O400   1.258       .  A
C392        C645   1.481       .  S
O393        C401   1.261       .  A
O394        C401   1.262       .  A
C395        O402   1.262       .  A
C395        O396   1.260       .  A
C395        C623   1.480       .  S
C397        O399   1.259       .  A
C397        O403   1.259       .  A
C397        C701   1.481       .  S
C401        C601   1.476       .  S
In404       O406   2.255       .  S
In404       O407   2.260       .  S
In404       O415   2.253       .  S
In404       O409   2.244       .  S
In404       O411   2.266       .  S
In404       O412   2.253       .  S
In404       O413   2.244       .  S
In404       O416   2.255       .  S
C405        O411   1.261       .  A
C405        O413   1.259       .  A
C405        C657   1.481       .  S
O406        C414   1.260       .  A
O407        C414   1.261       .  A
C408        O415   1.262       .  A
C408        O409   1.261       .  A
C408        C579   1.480       .  S
C410        O412   1.261       .  A
C410        O416   1.261       .  A
C410        C679   1.482       .  S
C414        C557   1.482       .  S
In417       O419   2.244       .  S
In417       O420   2.247       .  S
In417       O428   2.252       .  S
In417       O422   2.251       .  S
In417       O424   2.249       .  S
In417       O425   2.261       .  S
In417       O426   2.249       .  S
In417       O429   2.249       .  S
C418        O424   1.259       .  A
C418        O426   1.260       .  A
C418        C547   1.477       .  S
O419        C427   1.259       .  A
O420        C427   1.261       .  A
C421        O428   1.260       .  A
C421        O422   1.260       .  A
C421       C2643   1.477   1_554  S
C423        O425   1.262       .  A
C423        O429   1.261       .  A
C423        C943   1.483       .  S
C427        C569   1.477       .  S
In430       O432   2.238       .  S
In430       O433   2.279       .  S
In430       O441   2.250       .  S
In430       O435   2.245       .  S
In430       O437   2.252       .  S
In430       O438   2.245       .  S
In430       O439   2.239       .  S
In430       O442   2.252       .  S
C431        O437   1.262       .  A
C431        O439   1.261       .  A
C431        C535   1.477       .  S
O432        C440   1.255       .  A
O433        C440   1.259       .  A
C434        O441   1.261       .  A
C434        O435   1.260       .  A
C434        C513   1.478       .  S
C436        O438   1.262       .  A
C436        O442   1.261       .  A
C436        C921   1.480       .  S
C440        C503   1.479       .  S
In443       O445   2.235       .  S
In443       O446   2.260       .  S
In443       O454   2.258       .  S
In443       O448   2.231       .  S
In443       O450   2.251       .  S
In443       O451   2.245       .  S
In443       O452   2.236       .  S
In443       O455   2.254       .  S
C444        O450   1.260       .  A
C444        O452   1.260       .  A
C444        C469   1.475       .  S
O445        C453   1.259       .  A
O446        C453   1.261       .  A
C447        O454   1.262       .  A
C447        O448   1.259       .  A
C447        C525   1.477       .  S
C449        O451   1.260       .  A
C449        O455   1.261       .  A
C449       C1471   1.479       .  S
C453        C491   1.477       .  S
In456       O458   2.240       .  S
In456       O459   2.245       .  S
In456       O467   2.252       .  S
In456       O463   2.252       .  S
In456       O464   2.254       .  S
In456       O465   2.245       .  S
In456       O468   2.242       .  S
In456      O2513   2.245       .  S
C457        O463   1.260       .  A
C457        O465   1.258       .  A
C457        C481   1.475       .  S
O458        C466   1.262       .  A
O459        C466   1.262       .  A
C460        O461   1.261   1_554  A
C460       O2519   1.262   1_554  A
C460        C635   1.480       .  S
O461      In2508   2.233       .  S
C462        O464   1.259       .  A
C462        O468   1.257       .  A
C462       C1493   1.476       .  S
C466        C613   1.475       .  S
O467       C2512   1.260       .  A
C469        C470   1.398       .  A
C469        C474   1.401       .  A
C470        C471   1.393       .  A
C470        H483   1.083       .  S
C471        C472   1.414       .  A
C471        H484   1.076       .  S
C472        C478   1.428       .  A
C472        C473   1.423       .  A
C473        C475   1.400       .  A
C473        C474   1.406       .  A
C474        H485   1.085       .  S
C475        C476   1.390       .  A
C475        H486   1.084       .  S
C476        C477   1.400       .  A
C476        H487   1.084       .  S
C477        C478   1.422       .  A
C477        C482   1.404       .  A
C478        C479   1.416       .  A
C479        C480   1.395       .  A
C479        H488   1.077       .  S
C480        C481   1.398       .  A
C480        H489   1.083       .  S
C481        C482   1.401       .  A
C482        H490   1.084       .  S
C491        C492   1.399       .  A
C491        C496   1.402       .  A
C492        C493   1.392       .  A
C492        H505   1.083       .  S
C493        C494   1.414       .  A
C493        H506   1.078   1_565  S
C494        C495   1.422       .  A
C494       C2552   1.428   1_565  A
C495        C497   1.401       .  A
C495        C496   1.408       .  A
C496        H507   1.085       .  S
C497       C2550   1.392       .  A
C497        H508   1.084       .  S
C498        C499   1.400   1_565  A
C498       C2549   1.393   1_554  A
C498        H509   1.084       .  S
C499        C500   1.423   1_554  A
C499        C504   1.409       .  A
C500        C501   1.413       .  A
C500       C2546   1.429   1_545  A
C501        C502   1.393   1_556  A
C501        H510   1.078       .  S
C502        C503   1.400       .  A
C502        H511   1.083       .  S
C503        C504   1.402       .  A
C504        H512   1.084       .  S
C513        C514   1.399       .  A
C513        C518   1.401       .  A
C514        C515   1.396       .  A
C514        H527   1.083       .  S
C515        C516   1.415   1_545  A
C515        H528   1.077   1_545  S
C516        C522   1.429       .  A
C516        C517   1.422   1_565  A
C517        C519   1.400       .  A
C517        C518   1.405       .  A
C518        H529   1.084       .  S
C519        C520   1.390   1_545  A
C519        H530   1.084       .  S
C520        C521   1.399       .  A
C520        H531   1.084       .  S
C521        C522   1.423       .  A
C521        C526   1.406       .  A
C522        C523   1.414       .  A
C523        C524   1.394       .  A
C523        H532   1.077       .  S
C524        C525   1.400       .  A
C524        H533   1.083       .  S
C525        C526   1.401       .  A
C526        H534   1.084       .  S
C535        C536   1.400       .  A
C535        C540   1.400       .  A
C536        C537   1.398       .  A
C536        H549   1.083       .  S
C537        C538   1.416       .  A
C537        H550   1.078       .  S
C538        C544   1.430       .  A
C538        C539   1.423       .  A
C539        C541   1.399       .  A
C539        C540   1.403       .  A
C540        H551   1.085       .  S
C541        C542   1.388       .  A
C541        H552   1.084       .  S
C542        C543   1.398       .  A
C542        H553   1.084       .  S
C543        C544   1.423       .  A
C543        C548   1.403       .  A
C544        C545   1.415       .  A
C545        C546   1.398       .  A
C545        H554   1.078       .  S
C546        C547   1.401       .  A
C546        H555   1.083       .  S
C547        C548   1.399       .  A
C548        H556   1.085       .  S
C557        C558   1.400       .  A
C557        C562   1.402       .  A
C558        C559   1.398       .  A
C558        H571   1.083       .  S
C559        C560   1.415       .  A
C559        H572   1.076       .  S
C560        C566   1.432       .  A
C560        C561   1.423       .  A
C561        C563   1.400       .  A
C561        C562   1.407       .  A
C562        H573   1.084       .  S
C563        C564   1.390       .  A
C563        H574   1.084       .  S
C564        C565   1.399       .  A
C564        H575   1.084       .  S
C565        C566   1.423       .  A
C565        C570   1.405       .  A
C566        C567   1.416       .  A
C567        C568   1.398       .  A
C567        H576   1.076       .  S
C568        C569   1.400       .  A
C568        H577   1.084       .  S
C569        C570   1.400       .  A
C570        H578   1.084       .  S
C579        C580   1.400       .  A
C579        C584   1.401       .  A
C580        C581   1.398       .  A
C580        H593   1.083       .  S
C581        C582   1.416       .  A
C581        H594   1.077       .  S
C582        C588   1.432       .  A
C582        C583   1.423       .  A
C583        C585   1.399       .  A
C583        C584   1.405       .  A
C584        H595   1.084       .  S
C585        C586   1.389       .  A
C585        H596   1.084       .  S
C586        C587   1.399       .  A
C586        H597   1.084       .  S
C587        C588   1.423       .  A
C587        C592   1.404       .  A
C588        C589   1.416       .  A
C589        C590   1.399       .  A
C589        H598   1.077       .  S
C590        C591   1.400       .  A
C590        H599   1.083       .  S
C591       C2473   1.477       .  S
C591        C592   1.400       .  A
C592        H600   1.085       .  S
C601        C602   1.399       .  A
C601        C606   1.401       .  A
C602        C603   1.396       .  A
C602        H615   1.083       .  S
C603        C604   1.415       .  A
C603        H616   1.076       .  S
C604        C610   1.430       .  A
C604        C605   1.423       .  A
C605        C607   1.400       .  A
C605        C606   1.405       .  A
C606        H617   1.084       .  S
C607        C608   1.390       .  A
C607        H618   1.084       .  S
C608        C609   1.400       .  A
C608        H619   1.084       .  S
C609        C610   1.423       .  A
C609        C614   1.405       .  A
C610        C611   1.415       .  A
C611        C612   1.395       .  A
C611        H620   1.076       .  S
C612        C613   1.398       .  A
C612        H621   1.083       .  S
C613        C614   1.401       .  A
C614        H622   1.085       .  S
C623        C624   1.399       .  A
C623        C628   1.403       .  A
C624        C625   1.394       .  A
C624        H637   1.084       .  S
C625        C626   1.414       .  A
C625        H638   1.076       .  S
C626        C632   1.430       .  A
C626        C627   1.422       .  A
C627        C629   1.401       .  A
C627        C628   1.409       .  A
C628        H639   1.084       .  S
C629        C630   1.393       .  A
C629        H640   1.084       .  S
C630        C631   1.401       .  A
C630        H641   1.084       .  S
C631        C632   1.422       .  A
C631        C636   1.410       .  A
C632        C633   1.414       .  A
C633        C634   1.393       .  A
C633        H642   1.076       .  S
C634        C635   1.399       .  A
C634        H643   1.084       .  S
C635        C636   1.404       .  A
C636        H644   1.084       .  S
C645        C646   1.400       .  A
C645        C650   1.403       .  A
C646        C647   1.396       .  A
C646        H659   1.083       .  S
C647        C648   1.414       .  A
C647        H660   1.077       .  S
C648        C654   1.430   1_565  A
C648        C649   1.422       .  A
C649        C651   1.401       .  A
C649        C650   1.409       .  A
C650        H661   1.084       .  S
C651        C652   1.393       .  A
C651        H662   1.084       .  S
C652        C653   1.401   1_565  A
C652        H663   1.084       .  S
C653        C654   1.423       .  A
C653        C658   1.409       .  A
C654        C655   1.414       .  A
C655        C656   1.395       .  A
C655        H664   1.077       .  S
C656        C657   1.400       .  A
C656        H665   1.083       .  S
C657        C658   1.403       .  A
C658        H666   1.084       .  S
C667        C668   1.401       .  A
C667        C672   1.402       .  A
C668        C669   1.398       .  A
C668        H681   1.083       .  S
C669        C670   1.414       .  A
C669        H682   1.076       .  S
C670        C676   1.433       .  A
C670        C671   1.424       .  A
C671        C673   1.399       .  A
C671        C672   1.409       .  A
C672        H683   1.084       .  S
C673        C674   1.391       .  A
C673        H684   1.084       .  S
C674        C675   1.400       .  A
C674        H685   1.084       .  S
C675        C676   1.422       .  A
C675        C680   1.406       .  A
C676        C677   1.416       .  A
C677        C678   1.399       .  A
C677        H686   1.076       .  S
C678        C679   1.401       .  A
C678        H687   1.083       .  S
C679        C680   1.402       .  A
C680        H688   1.084       .  S
C689        C690   1.401       .  A
C689        C694   1.400       .  A
C690        C691   1.397       .  A
C690        H703   1.083       .  S
C691        C692   1.415       .  A
C691        H704   1.078       .  S
C692        C698   1.431       .  A
C692        C693   1.423       .  A
C693        C695   1.399       .  A
C693        C694   1.405       .  A
C694        H705   1.085       .  S
C695        C696   1.390       .  A
C695        H706   1.084       .  S
C696        C697   1.399       .  A
C696        H707   1.084       .  S
C697        C698   1.423       .  A
C697        C702   1.406       .  A
C698        C699   1.415       .  A
C699        C700   1.397       .  A
C699        H708   1.078       .  S
C700        C701   1.400       .  A
C700        H709   1.083       .  S
C701        C702   1.401       .  A
C702        H710   1.085       .  S
C711        C712   1.399       .  A
C711        C716   1.403       .  A
C712        C713   1.394       .  A
C712        H725   1.083       .  S
C713        C714   1.414       .  A
C713        H726   1.076       .  S
C714        C720   1.430   1_565  A
C714        C715   1.423       .  A
C715        C717   1.400       .  A
C715        C716   1.408       .  A
C716        H727   1.084       .  S
C717        C718   1.392   1_565  A
C717        H728   1.084       .  S
C718        C719   1.401       .  A
C718        H729   1.084       .  S
C719        C720   1.422       .  A
C719        C724   1.408       .  A
C720        C721   1.415       .  A
C721        C722   1.394       .  A
C721        H730   1.076       .  S
C722        C723   1.398       .  A
C722        H731   1.083       .  S
C723        C724   1.403       .  A
C724        H732   1.084       .  S
C733        C734   1.400       .  A
C733        C738   1.402       .  A
C734        C735   1.397       .  A
C734        H747   1.083       .  S
C735        C736   1.415       .  A
C735        H748   1.077       .  S
C736        C742   1.430       .  A
C736        C737   1.422       .  A
C737        C739   1.400       .  A
C737        C738   1.406       .  A
C738        H749   1.084       .  S
C739        C740   1.390       .  A
C739        H750   1.084       .  S
C740        C741   1.399       .  A
C740        H751   1.084       .  S
C741        C742   1.423       .  A
C741        C746   1.405       .  A
C742        C743   1.415       .  A
C743        C744   1.396       .  A
C743        H752   1.077       .  S
C744        C745   1.399       .  A
C744        H753   1.083       .  S
C745        C746   1.401       .  A
C746        H754   1.085       .  S
C755        C756   1.399       .  A
C755        C760   1.401       .  A
C756        C757   1.392       .  A
C756        H769   1.084       .  S
C757        C758   1.414       .  A
C757        H770   1.077       .  S
C758        C764   1.428       .  A
C758        C759   1.423       .  A
C759        C761   1.400       .  A
C759        C760   1.408       .  A
C760        H771   1.084       .  S
C761        C762   1.391       .  A
C761        H772   1.084       .  S
C762        C763   1.400       .  A
C762        H773   1.084       .  S
C763        C764   1.422       .  A
C763        C768   1.406       .  A
C764        C765   1.414       .  A
C765        C766   1.393       .  A
C765        H774   1.077       .  S
C766        C767   1.399       .  A
C766        H775   1.083       .  S
C767        C768   1.401       .  A
C768        H776   1.084       .  S
C777        C778   1.401       .  A
C777        C782   1.400       .  A
C778        C779   1.397       .  A
C778        H791   1.083       .  S
C779        C780   1.414       .  A
C779        H792   1.077       .  S
C780        C786   1.431       .  A
C780        C781   1.423       .  A
C781        C783   1.399       .  A
C781        C782   1.406       .  A
C782        H793   1.084       .  S
C783        C784   1.389       .  A
C783        H794   1.084       .  S
C784        C785   1.399       .  A
C784        H795   1.084       .  S
C785        C786   1.422       .  A
C785        C790   1.404       .  A
C786        C787   1.417       .  A
C787        C788   1.398       .  A
C787        H796   1.077       .  S
C788        C789   1.399       .  A
C788        H797   1.083       .  S
C789        C790   1.401       .  A
C790        H798   1.085       .  S
C799        C800   1.401       .  A
C799        C804   1.400       .  A
C800        C801   1.403       .  A
C800        H813   1.083       .  S
C801        C802   1.417   1_545  A
C801        H814   1.078   1_545  S
C802        C803   1.423   1_565  A
C802       C2860   1.434   1_554  A
C803        C805   1.398       .  A
C803        C804   1.403       .  A
C804        H815   1.085       .  S
C805       C2858   1.387   1_544  A
C805        H816   1.084       .  S
C806        C807   1.398       .  A
C806       C2857   1.386   1_565  A
C806        H817   1.084       .  S
C807        C808   1.422       .  A
C807        C812   1.401       .  A
C808        C809   1.417       .  A
C808       C2854   1.432       .  A
C809        C810   1.401       .  A
C809        H818   1.078       .  S
C810        C811   1.400       .  A
C810        H819   1.083       .  S
C811        C812   1.399       .  A
C812        H820   1.085       .  S
C821        C822   1.401       .  A
C821        C826   1.402       .  A
C822        C823   1.395       .  A
C822        H835   1.083       .  S
C823        C824   1.414       .  A
C823        H836   1.081       .  S
C824        C830   1.430   1_545  A
C824        C825   1.423       .  A
C825        C827   1.400   1_545  A
C825        C826   1.407       .  A
C826        H837   1.085       .  S
C827        C828   1.391       .  A
C827        H838   1.084       .  S
C828        C829   1.400       .  A
C828        H839   1.084       .  S
C829        C830   1.423       .  A
C829        C834   1.407       .  A
C830        C831   1.414       .  A
C831        C832   1.396       .  A
C831        H840   1.081       .  S
C832        C833   1.401       .  A
C832        H841   1.083       .  S
C833        C834   1.401       .  A
C834        H842   1.085       .  S
C843        C844   1.400       .  A
C843        C848   1.401       .  A
C844        C845   1.397       .  A
C844        H857   1.083       .  S
C845        C846   1.415       .  A
C845        H858   1.077       .  S
C846        C852   1.431       .  A
C846        C847   1.423       .  A
C847        C849   1.399       .  A
C847        C848   1.406       .  A
C848        H859   1.084       .  S
C849        C850   1.390       .  A
C849        H860   1.084       .  S
C850        C851   1.399       .  A
C850        H861   1.084       .  S
C851        C852   1.422       .  A
C851        C856   1.405       .  A
C852        C853   1.415       .  A
C853        C854   1.397       .  A
C853        H862   1.077       .  S
C854        C855   1.400       .  A
C854        H863   1.083       .  S
C855        C856   1.401       .  A
C856        H864   1.084       .  S
C865        C866   1.400       .  A
C865        C870   1.402       .  A
C866        C867   1.399       .  A
C866        H879   1.083       .  S
C867        C868   1.416       .  A
C867        H880   1.077       .  S
C868        C874   1.433       .  A
C868        C869   1.422       .  A
C869        C871   1.400       .  A
C869        C870   1.406       .  A
C870        H881   1.084       .  S
C871        C872   1.390       .  A
C871        H882   1.084       .  S
C872        C873   1.399       .  A
C872        H883   1.084       .  S
C873        C874   1.423       .  A
C873        C878   1.407       .  A
C874        C875   1.415       .  A
C875        C876   1.398       .  A
C875        H884   1.077       .  S
C876        C877   1.401       .  A
C876        H885   1.083       .  S
C877        C878   1.402       .  A
C878        H886   1.084       .  S
C887        C888   1.401       .  A
C887        C892   1.399       .  A
C888        C889   1.400       .  A
C888        H901   1.083       .  S
C889        C890   1.416       .  A
C889        H902   1.077       .  S
C890        C896   1.433       .  A
C890        C891   1.423       .  A
C891        C893   1.398       .  A
C891        C892   1.404       .  A
C892        H903   1.084       .  S
C893        C894   1.388       .  A
C893        H904   1.084       .  S
C894        C895   1.398       .  A
C894        H905   1.084       .  S
C895        C896   1.423       .  A
C895        C900   1.404       .  A
C896        C897   1.416       .  A
C897        C898   1.400       .  A
C897        H906   1.077       .  S
C898        C899   1.401       .  A
C898        H907   1.083       .  S
C899        C900   1.400       .  A
C900        H908   1.084       .  S
C909        C910   1.399       .  A
C909        C914   1.404       .  A
C910        C911   1.395       .  A
C910        H923   1.083       .  S
C911        C912   1.414       .  A
C911        H924   1.076       .  S
C912        C918   1.431       .  A
C912        C913   1.423       .  A
C913        C915   1.401       .  A
C913        C914   1.410       .  A
C914        H925   1.084       .  S
C915        C916   1.393       .  A
C915        H926   1.084       .  S
C916        C917   1.401       .  A
C916        H927   1.084       .  S
C917        C918   1.422       .  A
C917        C922   1.408       .  A
C918        C919   1.415       .  A
C919        C920   1.396       .  A
C919        H928   1.076       .  S
C920        C921   1.399       .  A
C920        H929   1.083       .  S
C921        C922   1.403       .  A
C922        H930   1.084       .  S
C931        C932   1.400       .  A
C931        C936   1.403       .  A
C932        C933   1.399       .  A
C932        H945   1.083       .  S
C933        C934   1.416       .  A
C933        H946   1.077       .  S
C934        C940   1.433       .  A
C934        C935   1.422       .  A
C935        C937   1.400       .  A
C935        C936   1.407       .  A
C936        H947   1.084       .  S
C937        C938   1.391       .  A
C937        H948   1.084       .  S
C938        C939   1.400       .  A
C938        H949   1.084       .  S
C939        C940   1.423       .  A
C939        C944   1.408       .  A
C940        C941   1.415       .  A
C941        C942   1.398       .  A
C941        H950   1.077       .  S
C942        C943   1.401       .  A
C942        H951   1.083       .  S
C943        C944   1.403       .  A
C944        H952   1.084       .  S
C953        C954   1.399       .  A
C953        C958   1.401       .  A
C954        C955   1.397       .  A
C954        H967   1.083       .  S
C955        C956   1.416       .  A
C955        H968   1.077       .  S
C956        C962   1.430       .  A
C956        C957   1.422       .  A
C957        C959   1.399       .  A
C957        C958   1.403       .  A
C958        H969   1.085       .  S
C959        C960   1.389       .  A
C959        H970   1.084       .  S
C960        C961   1.399       .  A
C960        H971   1.084       .  S
C961        C962   1.423       .  A
C961        C966   1.405       .  A
C962        C963   1.414       .  A
C963        C964   1.396       .  A
C963        H972   1.077       .  S
C964        C965   1.400       .  A
C964        H973   1.083       .  S
C965        C966   1.399       .  A
C966        H974   1.085       .  S
C975        C976   1.399       .  A
C975        C980   1.399       .  A
C976        C977   1.398       .  A
C976        H989   1.083       .  S
C977        C978   1.416       .  A
C977       H3042   1.078       .  S
C978        C979   1.423       .  A
C978       C3036   1.430       .  A
C979        C981   1.398       .  A
C979        C980   1.401       .  A
C980        H991   1.085       .  S
C981        C982   1.387       .  A
C981        H992   1.084       .  S
C982       C3035   1.398       .  A
C982        H993   1.084       .  S
C983        C984   1.423       .  A
C983        C988   1.402       .  A
C983       C3034   1.399       .  A
C984        C985   1.416       .  A
C984       C3030   1.432       .  A
C985        C986   1.400       .  A
C985        H994   1.078       .  S
C986        C987   1.400       .  A
C986        H995   1.083       .  S
C987        C988   1.401       .  A
C988        H996   1.085       .  S
H990       C3029   1.078       .  S
C997        C998   1.400       .  A
C997       C1002   1.402       .  A
C998        C999   1.398       .  A
C998       H1011   1.083       .  S
C999       C1000   1.416       .  A
C999       H1012   1.077       .  S
C1000      C1006   1.433       .  A
C1000      C1001   1.423       .  A
C1001      C1003   1.400       .  A
C1001      C1002   1.408       .  A
C1002      H1013   1.084       .  S
C1003      C1004   1.392       .  A
C1003      H1014   1.084       .  S
C1004      C1005   1.400       .  A
C1004      H1015   1.084       .  S
C1005      C1006   1.423       .  A
C1005      C1010   1.410       .  A
C1006      C1007   1.415       .  A
C1007      C1008   1.398       .  A
C1007      H1016   1.077       .  S
C1008      C1009   1.400       .  A
C1008      H1017   1.083       .  S
C1009      C1010   1.403       .  A
C1010      H1018   1.084       .  S
C1019      C1020   1.401       .  A
C1019      C1024   1.400       .  A
C1020      C1021   1.398       .  A
C1020      H1033   1.083       .  S
C1021      C1022   1.416       .  A
C1021      H1034   1.078       .  S
C1022      C1028   1.431       .  A
C1022      C1023   1.422       .  A
C1023      C1025   1.399       .  A
C1023      C1024   1.404       .  A
C1024      H1035   1.084       .  S
C1025      C1026   1.389       .  A
C1025      H1036   1.084       .  S
C1026      C1027   1.399       .  A
C1026      H1037   1.084       .  S
C1027      C1028   1.423       .  A
C1027      C1032   1.405       .  A
C1028      C1029   1.415       .  A
C1029      C1030   1.397       .  A
C1029      H1038   1.078       .  S
C1030      C1031   1.400       .  A
C1030      H1039   1.083       .  S
C1031      C1032   1.401       .  A
C1032      H1040   1.085       .  S
C1041      C1042   1.402       .  A
C1041      C1046   1.400       .  A
C1042      C1043   1.403       .  A
C1042      H1055   1.083       .  S
C1043      C1044   1.417       .  A
C1043      H1056   1.078       .  S
C1044      C1050   1.435       .  A
C1044      C1045   1.423       .  A
C1045      C1047   1.398       .  A
C1045      C1046   1.403       .  A
C1046      H1057   1.085       .  S
C1047      C1048   1.387       .  A
C1047      H1058   1.084       .  S
C1048      C1049   1.399       .  A
C1048      H1059   1.084       .  S
C1049      C1050   1.422       .  A
C1049      C1054   1.403       .  A
C1050      C1051   1.418       .  A
C1051      C1052   1.404       .  A
C1051      H1060   1.078       .  S
C1052      C1053   1.402       .  A
C1052      H1061   1.083       .  S
C1053      C1054   1.401       .  A
C1054      H1062   1.085       .  S
C1063      C1064   1.401       .  A
C1063      C1068   1.401       .  A
C1064      C1065   1.400       .  A
C1064      H1077   1.083       .  S
C1065      C1066   1.416       .  A
C1065      H1078   1.078       .  S
C1066      C1072   1.434       .  A
C1066      C1067   1.423       .  A
C1067      C1069   1.399       .  A
C1067      C1068   1.406       .  A
C1068      H1079   1.085       .  S
C1069      C1070   1.389       .  A
C1069      H1080   1.084       .  S
C1070      C1071   1.399       .  A
C1070      H1081   1.084       .  S
C1071      C1072   1.423       .  A
C1071      C1076   1.406       .  A
C1072      C1073   1.417       .  A
C1073      C1074   1.401       .  A
C1073      H1082   1.078       .  S
C1074      C1075   1.401       .  A
C1074      H1083   1.083       .  S
C1075      C1076   1.402       .  A
C1076      H1084   1.085       .  S
C1085      C1086   1.399       .  A
C1085      C1090   1.402       .  A
C1086      C1087   1.392       .  A
C1086      H1099   1.084       .  S
C1087      C1088   1.412       .  A
C1087      H1100   1.076       .  S
C1088      C1094   1.428       .  A
C1088      C1089   1.423       .  A
C1089      C1091   1.400       .  A
C1089      C1090   1.408       .  A
C1090      H1101   1.084       .  S
C1091      C1092   1.392       .  A
C1091      H1102   1.084       .  S
C1092      C1093   1.400       .  A
C1092      H1103   1.084       .  S
C1093      C1094   1.421       .  A
C1093      C1098   1.406       .  A
C1094      C1095   1.415       .  A
C1095      C1096   1.395       .  A
C1095      H1104   1.077       .  S
C1096      C1097   1.400       .  A
C1096      H1105   1.084       .  S
C1097      C1098   1.402       .  A
C1098      H1106   1.084       .  S
C1107      C1108   1.399       .  A
C1107      C1112   1.401       .  A
C1108      C1109   1.393       .  A
C1108      H1121   1.083       .  S
C1109      C1110   1.413       .  A
C1109      H1122   1.077       .  S
C1110      C1116   1.429       .  A
C1110      C1111   1.424       .  A
C1111      C1113   1.399       .  A
C1111      C1112   1.406       .  A
C1112      H1123   1.085       .  S
C1113      C1114   1.390       .  A
C1113      H1124   1.084       .  S
C1114      C1115   1.400       .  A
C1114      H1125   1.084       .  S
C1115      C1116   1.421       .  A
C1115      C1120   1.403       .  A
C1116      C1117   1.417       .  A
C1117      C1118   1.397       .  A
C1117      H1126   1.077       .  S
C1118      C1119   1.399       .  A
C1118      H1127   1.083       .  S
C1119      C2343   1.477       .  S
C1119      C1120   1.401       .  A
C1120      H1128   1.085       .  S
C1129      C1130   1.400       .  A
C1129      C1134   1.401       .  A
C1130      C1131   1.395       .  A
C1130      H1143   1.083       .  S
C1131      C1132   1.414       .  A
C1131      H1144   1.077       .  S
C1132      C1138   1.430       .  A
C1132      C1133   1.423       .  A
C1133      C1135   1.400       .  A
C1133      C1134   1.406       .  A
C1134      H1145   1.084       .  S
C1135      C1136   1.390       .  A
C1135      H1146   1.084       .  S
C1136      C1137   1.400       .  A
C1136      H1147   1.084       .  S
C1137      C1138   1.422       .  A
C1137      C1142   1.405       .  A
C1138      C1139   1.416       .  A
C1139      C1140   1.396       .  A
C1139      H1148   1.077       .  S
C1140      C1141   1.398       .  A
C1140      H1149   1.083       .  S
C1141      C1142   1.402       .  A
C1142      H1150   1.085       .  S
C1151      C1152   1.399       .  A
C1151      C1156   1.402       .  A
C1152      C1153   1.393       .  A
C1152      H1165   1.083       .  S
C1153      C1154   1.414       .  A
C1153      H1166   1.076       .  S
C1154      C1160   1.428       .  A
C1154      C1155   1.423       .  A
C1155      C1157   1.400       .  A
C1155      C1156   1.406       .  A
C1156      H1167   1.084       .  S
C1157      C1158   1.391       .  A
C1157      H1168   1.084       .  S
C1158      C1159   1.400       .  A
C1158      H1169   1.084       .  S
C1159      C1160   1.422       .  A
C1159      C1164   1.405       .  A
C1160      C1161   1.415       .  A
C1161      C1162   1.394       .  A
C1161      H1170   1.076       .  S
C1162      C1163   1.398       .  A
C1162      H1171   1.083       .  S
C1163      C1164   1.402       .  A
C1164      H1172   1.084       .  S
C1173      C1174   1.400       .  A
C1173      C1178   1.401       .  A
C1174      C1175   1.399       .  A
C1174      H1187   1.083       .  S
C1175      C1176   1.416       .  A
C1175      H1188   1.077       .  S
C1176      C1182   1.432       .  A
C1176      C1177   1.422       .  A
C1177      C1179   1.399       .  A
C1177      C1178   1.404       .  A
C1178      H1189   1.084       .  S
C1179      C1180   1.389       .  A
C1179      H1190   1.084       .  S
C1180      C1181   1.399       .  A
C1180      H1191   1.084       .  S
C1181      C1182   1.423       .  A
C1181      C1186   1.405       .  A
C1182      C1183   1.415       .  A
C1183      C1184   1.398       .  A
C1183      H1192   1.077       .  S
C1184      C1185   1.400       .  A
C1184      H1193   1.083       .  S
C1185      C1186   1.401       .  A
C1186      H1194   1.085       .  S
C1195      C1196   1.399       .  A
C1195      C1200   1.401       .  A
C1196      C1197   1.395       .  A
C1196      H1209   1.083       .  S
C1197      C1198   1.415       .  A
C1197      H1210   1.076       .  S
C1198      C1204   1.429       .  A
C1198      C1199   1.422       .  A
C1199      C1201   1.400       .  A
C1199      C1200   1.404       .  A
C1200      H1211   1.084       .  S
C1201      C1202   1.390       .  A
C1201      H1212   1.084       .  S
C1202      C1203   1.399       .  A
C1202      H1213   1.084       .  S
C1203      C1204   1.423       .  A
C1203      C1208   1.405       .  A
C1204      C1205   1.414       .  A
C1205      C1206   1.395       .  A
C1205      H1214   1.076       .  S
C1206      C1207   1.399       .  A
C1206      H1215   1.083       .  S
C1207      C1208   1.401       .  A
C1208      H1216   1.084       .  S
C1217      C1218   1.398       .  A
C1217      C1222   1.400       .  A
C1218      C1219   1.397       .  A
C1218      H1231   1.083       .  S
C1219      C1220   1.415       .  A
C1219      H3284   1.077       .  S
C1220      C1221   1.423       .  A
C1220      C3278   1.429   1_554  A
C1221      C1223   1.399       .  A
C1221      C1222   1.402       .  A
C1222      H1233   1.085       .  S
C1223      C1224   1.388   1_554  A
C1223      H1234   1.084       .  S
C1224      C3277   1.399       .  A
C1224      H1235   1.084       .  S
C1225      C1226   1.422       .  A
C1225      C1230   1.402       .  A
C1225      C3276   1.399       .  A
C1226      C1227   1.417       .  A
C1226      C3272   1.430       .  A
C1227      C1228   1.398       .  A
C1227      H1236   1.077       .  S
C1228      C1229   1.399       .  A
C1228      H1237   1.083       .  S
C1229      C1230   1.401       .  A
C1230      H1238   1.085       .  S
H1232      C3271   1.077       .  S
C1239      C1240   1.398       .  A
C1239      C1244   1.399       .  A
C1240      C1241   1.397       .  A
C1240      H1253   1.083       .  S
C1241      C1242   1.416       .  A
C1241      H1254   1.077       .  S
C1242      C1248   1.430       .  A
C1242      C1243   1.423       .  A
C1243      C1245   1.399       .  A
C1243      C1244   1.402       .  A
C1244      H1255   1.085       .  S
C1245      C1246   1.388       .  A
C1245      H1256   1.084       .  S
C1246      C1247   1.399       .  A
C1246      H1257   1.084       .  S
C1247      C1248   1.423       .  A
C1247      C1252   1.404       .  A
C1248      C1249   1.415       .  A
C1249      C1250   1.397       .  A
C1249      H1258   1.077       .  S
C1250      C1251   1.400       .  A
C1250      H1259   1.083       .  S
C1251      C1252   1.401       .  A
C1252      H1260   1.084       .  S
C1261      C1262   1.399       .  A
C1261      C1266   1.400       .  A
C1262      C1263   1.400       .  A
C1262      H1275   1.083       .  S
C1263      C1264   1.418       .  A
C1263      H1276   1.076       .  S
C1264      C1270   1.429       .  A
C1264      C1265   1.421       .  A
C1265      C1267   1.399       .  A
C1265      C1266   1.399       .  A
C1266      H1277   1.084       .  S
C1267      C1268   1.387       .  A
C1267      H1278   1.084       .  S
C1268      C1269   1.398       .  A
C1268      H1279   1.084       .  S
C1269      C1270   1.424       .  A
C1269      C1274   1.404       .  A
C1270      C1271   1.413       .  A
C1271      C1272   1.395       .  A
C1271      H1280   1.076       .  S
C1272      C1273   1.399       .  A
C1272      H1281   1.083       .  S
C1273      C1274   1.400       .  A
C1274      H1282   1.084       .  S
C1283      C1284   1.400       .  A
C1283      C1288   1.403       .  A
C1284      C1285   1.396       .  A
C1284      H1297   1.083       .  S
C1285      C1286   1.415       .  A
C1285      H1298   1.077       .  S
C1286      C1292   1.432       .  A
C1286      C1287   1.423       .  A
C1287      C1289   1.400       .  A
C1287      C1288   1.409       .  A
C1288      H1299   1.084       .  S
C1289      C1290   1.392       .  A
C1289      H1300   1.084       .  S
C1290      C1291   1.401       .  A
C1290      H1301   1.084       .  S
C1291      C1292   1.423       .  A
C1291      C1296   1.409       .  A
C1292      C1293   1.415       .  A
C1293      C1294   1.396       .  A
C1293      H1302   1.077       .  S
C1294      C1295   1.399       .  A
C1294      H1303   1.083       .  S
C1295      C1296   1.403       .  A
C1296      H1304   1.084       .  S
C1305      C1306   1.398       .  A
C1305      C1310   1.401       .  A
C1306      C1307   1.395       .  A
C1306      H1319   1.083       .  S
C1307      C1308   1.415       .  A
C1307      H1320   1.076       .  S
C1308      C1314   1.428       .  A
C1308      C1309   1.422       .  A
C1309      C1311   1.400       .  A
C1309      C1310   1.405       .  A
C1310      H1321   1.084       .  S
C1311      C1312   1.391       .  A
C1311      H1322   1.084       .  S
C1312      C1313   1.400       .  A
C1312      H1323   1.084       .  S
C1313      C1314   1.423       .  A
C1313      C1318   1.406       .  A
C1314      C1315   1.414       .  A
C1315      C1316   1.393       .  A
C1315      H1324   1.076       .  S
C1316      C1317   1.398       .  A
C1316      H1325   1.083       .  S
C1317      C1318   1.402       .  A
C1318      H1326   1.084       .  S
C1327      C1328   1.400       .  A
C1327      C1332   1.401       .  A
C1328      C1329   1.399       .  A
C1328      H1341   1.083       .  S
C1329      C1330   1.416       .  A
C1329      H1342   1.077       .  S
C1330      C1336   1.432       .  A
C1330      C1331   1.423       .  A
C1331      C1333   1.399       .  A
C1331      C1332   1.404       .  A
C1332      H1343   1.084       .  S
C1333      C1334   1.389       .  A
C1333      H1344   1.084       .  S
C1334      C1335   1.399       .  A
C1334      H1345   1.084       .  S
C1335      C1336   1.423       .  A
C1335      C1340   1.404       .  A
C1336      C1337   1.416       .  A
C1337      C1338   1.399       .  A
C1337      H1346   1.077       .  S
C1338      C1339   1.400       .  A
C1338      H1347   1.083       .  S
C1339      C1340   1.401       .  A
C1340      H1348   1.085       .  S
C1349      C1350   1.398       .  A
C1349      C1354   1.402       .  A
C1350      C1351   1.395       .  A
C1350      H1363   1.083       .  S
C1351      C1352   1.416       .  A
C1351      H1364   1.077       .  S
C1352      C1358   1.428       .  A
C1352      C1353   1.422       .  A
C1353      C1355   1.400       .  A
C1353      C1354   1.404       .  A
C1354      H1365   1.085       .  S
C1355      C1356   1.391       .  A
C1355      H1366   1.084       .  S
C1356      C1357   1.400       .  A
C1356      H1367   1.084       .  S
C1357      C1358   1.423       .  A
C1357      C1362   1.407       .  A
C1358      C1359   1.413       .  A
C1359      C1360   1.393       .  A
C1359      H1368   1.077       .  S
C1360      C1361   1.399       .  A
C1360      H1369   1.083       .  S
C1361      C1362   1.402       .  A
C1362      H1370   1.085       .  S
C1371      C1372   1.401       .  A
C1371      C1376   1.400       .  A
C1372      C1373   1.402       .  A
C1372      H1385   1.083       .  S
C1373      C1374   1.418       .  A
C1373      H1386   1.078       .  S
C1374      C1380   1.431       .  A
C1374      C1375   1.421       .  A
C1375      C1377   1.399       .  A
C1375      C1376   1.400       .  A
C1376      H1387   1.085       .  S
C1377      C1378   1.387       .  A
C1377      H1388   1.084       .  S
C1378      C1379   1.398       .  A
C1378      H1389   1.084       .  S
C1379      C1380   1.423       .  A
C1379      C1384   1.403       .  A
C1380      C1381   1.415       .  A
C1381      C1382   1.399       .  A
C1381      H1390   1.078       .  S
C1382      C1383   1.400       .  A
C1382      H1391   1.083       .  S
C1383      C1384   1.399       .  A
C1384      H1392   1.085       .  S
C1393      C1394   1.398       .  A
C1393      C1398   1.403       .  A
C1394      C1395   1.394       .  A
C1394      H1407   1.084       .  S
C1395      C1396   1.415       .  A
C1395      H1408   1.074       .  S
C1396      C1402   1.429       .  A
C1396      C1397   1.421       .  A
C1397      C1399   1.401       .  A
C1397      C1398   1.407       .  A
C1398      H1409   1.084       .  S
C1399      C1400   1.392       .  A
C1399      H1410   1.084       .  S
C1400      C1401   1.400       .  A
C1400      H1411   1.084       .  S
C1401      C1402   1.423       .  A
C1401      C1406   1.409       .  A
C1402      C1403   1.413       .  A
C1403      C1404   1.392       .  A
C1403      H1412   1.073       .  S
C1404      C1405   1.398       .  A
C1404      H3465   1.084       .  S
C1405      C2239   1.477       .  S
C1405      C1406   1.403       .  A
C1406      H1414   1.084       .  S
H1413      C3456   1.084       .  S
C1415      C1416   1.399       .  A
C1415      C1420   1.401       .  A
C1416      C1417   1.396       .  A
C1416      H1429   1.083       .  S
C1417      C1418   1.415       .  A
C1417      H1430   1.078       .  S
C1418      C1424   1.427       .  A
C1418      C1419   1.422       .  A
C1419      C1421   1.400       .  A
C1419      C1420   1.404       .  A
C1420      H1431   1.085       .  S
C1421      C1422   1.390       .  A
C1421      H1432   1.084       .  S
C1422      C1423   1.399       .  A
C1422      H1433   1.084       .  S
C1423      C1424   1.422       .  A
C1423      C1428   1.405       .  A
C1424      C1425   1.413       .  A
C1425      C1426   1.395       .  A
C1425      H1434   1.078       .  S
C1426      C1427   1.400       .  A
C1426      H1435   1.083       .  S
C1427      C1428   1.401       .  A
C1428      H1436   1.084       .  S
C1437      C1438   1.401       .  A
C1437      C1442   1.402       .  A
C1438      C1439   1.397       .  A
C1438      H1451   1.083       .  S
C1439      C1440   1.415       .  A
C1439      H1452   1.077       .  S
C1440      C1446   1.432   1_655  A
C1440      C1441   1.423       .  A
C1441      C1443   1.400       .  A
C1441      C1442   1.408       .  A
C1442      H1453   1.084       .  S
C1443      C1444   1.391   1_655  A
C1443      H1454   1.084       .  S
C1444      C1445   1.400       .  A
C1444      H1455   1.084       .  S
C1445      C1446   1.422       .  A
C1445      C1450   1.407       .  A
C1446      C1447   1.416       .  A
C1447      C1448   1.398       .  A
C1447      H1456   1.077   1_455  S
C1448      C1449   1.399       .  A
C1448      H1457   1.083       .  S
C1449      C1450   1.403       .  A
C1450      H1458   1.084       .  S
C1459      C1460   1.401       .  A
C1459      C1464   1.400       .  A
C1460      C1461   1.399       .  A
C1460      H1473   1.083       .  S
C1461      C1462   1.416       .  A
C1461      H1474   1.077       .  S
C1462      C1468   1.432       .  A
C1462      C1463   1.423       .  A
C1463      C1465   1.399       .  A
C1463      C1464   1.404       .  A
C1464      H1475   1.084       .  S
C1465      C1466   1.388       .  A
C1465      H1476   1.084       .  S
C1466      C1467   1.399       .  A
C1466      H1477   1.084       .  S
C1467      C1468   1.423       .  A
C1467      C1472   1.404       .  A
C1468      C1469   1.416       .  A
C1469      C1470   1.399       .  A
C1469      H1478   1.077       .  S
C1470      C1471   1.400       .  A
C1470      H1479   1.083       .  S
C1471      C1472   1.400       .  A
C1472      H1480   1.084       .  S
C1481      C1482   1.400       .  A
C1481      C1486   1.401       .  A
C1482      C1483   1.398       .  A
C1482      H1495   1.083       .  S
C1483      C1484   1.415       .  A
C1483      H1496   1.078       .  S
C1484      C1490   1.430       .  A
C1484      C1485   1.422       .  A
C1485      C1487   1.400       .  A
C1485      C1486   1.405       .  A
C1486      H1497   1.084       .  S
C1487      C1488   1.389       .  A
C1487      H1498   1.084       .  S
C1488      C1489   1.399       .  A
C1488      H1499   1.084       .  S
C1489      C1490   1.422       .  A
C1489      C1494   1.404       .  A
C1490      C1491   1.415       .  A
C1491      C1492   1.397       .  A
C1491      H1500   1.078       .  S
C1492      C1493   1.399       .  A
C1492      H1501   1.083       .  S
C1493      C1494   1.401       .  A
C1494      H1502   1.085       .  S
C1503      C1504   1.401       .  A
C1503      C1508   1.401       .  A
C1504      C1505   1.400       .  A
C1504      H1517   1.083       .  S
C1505      C1506   1.416       .  A
C1505      H1518   1.077       .  S
C1506      C1512   1.433       .  A
C1506      C1507   1.423       .  A
C1507      C1509   1.399       .  A
C1507      C1508   1.405       .  A
C1508      H1519   1.084       .  S
C1509      C1510   1.389       .  A
C1509      H1520   1.084       .  S
C1510      C1511   1.399       .  A
C1510      H1521   1.084       .  S
C1511      C1512   1.423       .  A
C1511      C1516   1.405       .  A
C1512      C1513   1.416       .  A
C1513      C1514   1.400       .  A
C1513      H1522   1.077       .  S
C1514      C1515   1.401       .  A
C1514      H1523   1.083       .  S
C1515      C1516   1.401       .  A
C1516      H1524   1.084       .  S
C1525      C1526   1.399       .  A
C1525      C1530   1.399       .  A
C1526      C1527   1.398       .  A
C1526      H1539   1.083       .  S
C1527      C1528   1.416       .  A
C1527      H1540   1.078       .  S
C1528      C1534   1.429       .  A
C1528      C1529   1.422       .  A
C1529      C1531   1.399       .  A
C1529      C1530   1.401       .  A
C1530      H1541   1.085       .  S
C1531      C1532   1.387       .  A
C1531      H1542   1.084       .  S
C1532      C1533   1.399       .  A
C1532      H1543   1.084       .  S
C1533      C1534   1.423       .  A
C1533      C1538   1.402       .  A
C1534      C1535   1.416       .  A
C1535      C1536   1.397       .  A
C1535      H1544   1.078       .  S
C1536      C1537   1.399       .  A
C1536      H1545   1.083       .  S
C1537      C1538   1.400       .  A
C1538      H1546   1.085       .  S
C1547      C1548   1.399       .  A
C1547      C1552   1.402       .  A
C1548      C1549   1.395       .  A
C1548      H1561   1.083       .  S
C1549      C1550   1.414       .  A
C1549      H1562   1.077       .  S
C1550      C1556   1.429       .  A
C1550      C1551   1.423       .  A
C1551      C1553   1.400       .  A
C1551      C1552   1.407       .  A
C1552      H1563   1.084       .  S
C1553      C1554   1.391       .  A
C1553      H1564   1.084       .  S
C1554      C1555   1.400       .  A
C1554      H1565   1.084       .  S
C1555      C1556   1.422       .  A
C1555      C1560   1.405       .  A
C1556      C1557   1.415       .  A
C1557      C1558   1.396       .  A
C1557      H1566   1.077       .  S
C1558      C1559   1.400       .  A
C1558      H1567   1.083       .  S
C1559      C1560   1.400       .  A
C1560      H1568   1.084       .  S
C1569      C1570   1.401       .  A
C1569      C1574   1.400       .  A
C1570      C1571   1.399       .  A
C1570      H1583   1.083       .  S
C1571      C1572   1.416       .  A
C1571      H1584   1.077       .  S
C1572      C1578   1.432       .  A
C1572      C1573   1.423       .  A
C1573      C1575   1.398       .  A
C1573      C1574   1.404       .  A
C1574      H1585   1.085       .  S
C1575      C1576   1.388       .  A
C1575      H1586   1.084       .  S
C1576      C1577   1.399       .  A
C1576      H1587   1.084       .  S
C1577      C1578   1.423       .  A
C1577      C1582   1.403       .  A
C1578      C1579   1.416       .  A
C1579      C1580   1.399       .  A
C1579      H1588   1.077       .  S
C1580      C1581   1.400       .  A
C1580      H1589   1.083       .  S
C1581      C1582   1.400       .  A
C1582      H1590   1.085       .  S
C1591      C1592   1.401       .  A
C1591      C1596   1.400       .  A
C1592      C1593   1.401       .  A
C1592      H1605   1.083       .  S
C1593      C1594   1.416       .  A
C1593      H3658   1.078       .  S
C1594      C1595   1.423       .  A
C1594      C3652   1.432   1_455  A
C1595      C1597   1.398   1_455  A
C1595      C1596   1.402       .  A
C1596      H1607   1.085       .  S
C1597      C1598   1.387       .  A
C1597      H1608   1.084       .  S
C1598      C3651   1.398       .  A
C1598      H1609   1.084       .  S
C1599      C1600   1.422   1_554  A
C1599      C1604   1.402       .  A
C1599      C3650   1.398   1_554  A
C1600      C1601   1.417   1_556  A
C1600      C3646   1.432   1_655  A
C1601      C1602   1.401       .  A
C1601      H1610   1.078       .  S
C1602      C1603   1.400       .  A
C1602      H1611   1.083       .  S
C1603      C1604   1.399       .  A
C1604      H1612   1.085       .  S
H1606      C3645   1.078       .  S
C1613      C1614   1.400       .  A
C1613      C1618   1.401       .  A
C1614      C1615   1.399       .  A
C1614      H1627   1.083       .  S
C1615      C1616   1.415       .  A
C1615      H1628   1.077   1_655  S
C1616      C1622   1.433   1_655  A
C1616      C1617   1.423       .  A
C1617      C1619   1.399       .  A
C1617      C1618   1.406       .  A
C1618      H1629   1.084       .  S
C1619      C1620   1.390   1_655  A
C1619      H1630   1.084       .  S
C1620      C1621   1.399       .  A
C1620      H1631   1.084       .  S
C1621      C1622   1.423       .  A
C1621      C1626   1.405       .  A
C1622      C1623   1.416       .  A
C1623      C1624   1.400       .  A
C1623      H1632   1.077       .  S
C1624      C1625   1.400       .  A
C1624      H1633   1.083       .  S
C1625      C1626   1.401       .  A
C1626      H1634   1.084       .  S
C1635      C1636   1.401       .  A
C1635      C1640   1.399       .  A
C1636      C1637   1.398       .  A
C1636      H1649   1.083   1_554  S
C1637      C1638   1.415       .  A
C1637      H1650   1.077   1_554  S
C1638      C1644   1.431       .  A
C1638      C1639   1.423       .  A
C1639      C1641   1.398       .  A
C1639      C1640   1.403       .  A
C1640      H1651   1.085       .  S
C1641      C1642   1.387       .  A
C1641      H1652   1.084       .  S
C1642      C1643   1.398       .  A
C1642      H1653   1.084       .  S
C1643      C1644   1.422       .  A
C1643      C1648   1.401       .  A
C1644      C1645   1.416       .  A
C1645      C1646   1.399       .  A
C1645      H1654   1.077   1_554  S
C1646      C1647   1.400       .  A
C1646      H1655   1.083   1_554  S
C1647      C1648   1.399       .  A
C1648      H1656   1.085       .  S
C1657      C1658   1.400       .  A
C1657      C1662   1.403       .  A
C1658      C1659   1.393       .  A
C1658      H1671   1.083       .  S
C1659      C1660   1.414       .  A
C1659      H1672   1.077       .  S
C1660      C1666   1.429       .  A
C1660      C1661   1.422       .  A
C1661      C1663   1.401       .  A
C1661      C1662   1.409       .  A
C1662      H1673   1.084       .  S
C1663      C1664   1.393       .  A
C1663      H1674   1.084       .  S
C1664      C1665   1.400       .  A
C1664      H1675   1.084       .  S
C1665      C1666   1.423       .  A
C1665      C1670   1.409       .  A
C1666      C1667   1.413       .  A
C1667      C1668   1.392       .  A
C1667      H1676   1.077       .  S
C1668      C1669   1.399       .  A
C1668      H1677   1.083       .  S
C1669      C1670   1.402       .  A
C1670      H1678   1.084       .  S
C1679      C2135   1.480       .  S
C1679      C1680   1.400       .  A
C1679      C1684   1.402       .  A
C1680      C1681   1.398       .  A
C1680      H1693   1.083       .  S
C1681      C1682   1.416       .  A
C1681      H1694   1.077       .  S
C1682      C1688   1.432       .  A
C1682      C1683   1.423       .  A
C1683      C1685   1.399       .  A
C1683      C1684   1.405       .  A
C1684      H1695   1.084       .  S
C1685      C1686   1.390       .  A
C1685      H1696   1.084       .  S
C1686      C1687   1.399       .  A
C1686      H1697   1.084       .  S
C1687      C1688   1.423       .  A
C1687      C1692   1.405       .  A
C1688      C1689   1.416       .  A
C1689      C1690   1.398       .  A
C1689      H1698   1.077       .  S
C1690      C1691   1.400       .  A
C1690      H1699   1.083       .  S
C1691      C1692   1.401       .  A
C1692      H1700   1.084       .  S
C1701      C1702   1.399       .  A
C1701      C1706   1.401       .  A
C1702      C1703   1.395       .  A
C1702      H1715   1.083       .  S
C1703      C1704   1.414       .  A
C1703      H1716   1.077       .  S
C1704      C1710   1.429       .  A
C1704      C1705   1.423       .  A
C1705      C1707   1.399       .  A
C1705      C1706   1.406       .  A
C1706      H1717   1.084       .  S
C1707      C1708   1.390       .  A
C1707      H1718   1.084       .  S
C1708      C1709   1.400       .  A
C1708      H1719   1.084       .  S
C1709      C1710   1.422       .  A
C1709      C1714   1.405       .  A
C1710      C1711   1.415       .  A
C1711      C1712   1.395       .  A
C1711      H1720   1.077       .  S
C1712      C1713   1.398       .  A
C1712      H1721   1.083       .  S
C1713      C1714   1.401       .  A
C1714      H1722   1.085       .  S
C1723      C1724   1.400       .  A
C1723      C1728   1.401       .  A
C1724      C1725   1.399       .  A
C1724      H1737   1.083       .  S
C1725      C1726   1.416       .  A
C1725      H1738   1.077       .  S
C1726      C1732   1.432       .  A
C1726      C1727   1.422       .  A
C1727      C1729   1.399       .  A
C1727      C1728   1.403       .  A
C1728      H1739   1.085       .  S
C1729      C1730   1.389       .  A
C1729      H1740   1.084   1_554  S
C1730      C1731   1.399       .  A
C1730      H1741   1.084   1_554  S
C1731      C1732   1.423       .  A
C1731      C1736   1.405       .  A
C1732      C1733   1.415       .  A
C1733      C1734   1.398       .  A
C1733      H1742   1.077       .  S
C1734      C1735   1.401       .  A
C1734      H1743   1.083       .  S
C1735      C1736   1.401       .  A
C1736      H1744   1.084       .  S
C1745      C1746   1.401       .  A
C1745      C1750   1.401       .  A
C1746      C1747   1.402       .  A
C1746      H1759   1.083       .  S
C1747      C1748   1.417       .  A
C1747      H1760   1.078       .  S
C1748      C1754   1.434       .  A
C1748      C1749   1.422       .  A
C1749      C1751   1.399       .  A
C1749      C1750   1.404       .  A
C1750      H1761   1.084       .  S
C1751      C1752   1.388       .  A
C1751      H1762   1.084       .  S
C1752      C1753   1.398       .  A
C1752      H1763   1.084       .  S
C1753      C1754   1.423       .  A
C1753      C1758   1.405       .  A
C1754      C1755   1.416       .  A
C1755      C1756   1.401       .  A
C1755      H1764   1.078       .  S
C1756      C1757   1.402       .  A
C1756      H1765   1.083       .  S
C1757      C1758   1.400       .  A
C1758      H1766   1.084       .  S
C1767      C1768   1.400       .  A
C1767      C1772   1.403       .  A
C1768      C1769   1.396       .  A
C1768      H1781   1.083       .  S
C1769      C1770   1.414       .  A
C1769      H1782   1.078       .  S
C1770      C1776   1.430       .  A
C1770      C1771   1.422       .  A
C1771      C1773   1.401       .  A
C1771      C1772   1.408       .  A
C1772      H1783   1.084       .  S
C1773      C1774   1.392       .  A
C1773      H1784   1.084       .  S
C1774      C1775   1.400       .  A
C1774      H1785   1.084       .  S
C1775      C1776   1.422       .  A
C1775      C1780   1.407       .  A
C1776      C1777   1.414       .  A
C1777      C1778   1.395       .  A
C1777      H1786   1.078       .  S
C1778      C1779   1.399       .  A
C1778      H1787   1.083       .  S
C1779      C1780   1.402       .  A
C1780      H1788   1.085       .  S
C1789      C1790   1.400       .  A
C1789      C1794   1.403       .  A
C1790      C1791   1.399       .  A
C1790      H1803   1.083       .  S
C1791      C1792   1.416       .  A
C1791      H1804   1.077       .  S
C1792      C1798   1.433       .  A
C1792      C1793   1.423       .  A
C1793      C1795   1.400       .  A
C1793      C1794   1.409       .  A
C1794      H1805   1.084       .  S
C1795      C1796   1.392       .  A
C1795      H1806   1.084       .  S
C1796      C1797   1.400       .  A
C1796      H1807   1.084       .  S
C1797      C1798   1.423       .  A
C1797      C1802   1.408       .  A
C1798      C1799   1.415       .  A
C1799      C1800   1.398       .  A
C1799      H1808   1.077       .  S
C1800      C1801   1.400       .  A
C1800      H1809   1.083       .  S
C1801      C1802   1.403       .  A
C1802      H1810   1.084       .  S
C1811      C1812   1.400       .  A
C1811      C1816   1.400       .  A
C1812      C1813   1.397       .  A
C1812      H1825   1.083       .  S
C1813      C1814   1.415       .  A
C1813      H1826   1.076       .  S
C1814      C1820   1.429       .  A
C1814      C1815   1.423       .  A
C1815      C1817   1.399       .  A
C1815      C1816   1.403       .  A
C1816      H1827   1.084       .  S
C1817      C1818   1.387       .  A
C1817      H1828   1.084       .  S
C1818      C1819   1.398       .  A
C1818      H1829   1.084       .  S
C1819      C1820   1.422       .  A
C1819      C1824   1.401       .  A
C1820      C1821   1.416       .  A
C1821      C1822   1.398       .  A
C1821      H1830   1.076       .  S
C1822      C1823   1.399       .  A
C1822      H1831   1.083       .  S
C1823      C1824   1.400       .  A
C1824      H1832   1.084       .  S
C1833      C1834   1.400       .  A
C1833      C1838   1.400       .  A
C1834      C1835   1.400       .  A
C1834      H1847   1.083       .  S
C1835      C1836   1.417       .  A
C1835      H1848   1.077       .  S
C1836      C1837   1.422       .  A
C1836      C3894   1.432   1_554  A
C1837      C1839   1.399       .  A
C1837      C1838   1.401       .  A
C1838      H1849   1.085       .  S
C1839      C3892   1.388   1_554  A
C1839      H1850   1.084       .  S
C1840      C1841   1.398       .  A
C1840      C3891   1.386   1_455  A
C1840      H1851   1.084       .  S
C1841      C1842   1.423       .  A
C1841      C1846   1.402       .  A
C1842      C1843   1.417       .  A
C1842      C3888   1.433   1_455  A
C1843      C1844   1.402       .  A
C1843      H1852   1.077       .  S
C1844      C1845   1.401       .  A
C1844      H1853   1.083       .  S
C1845      C1846   1.400       .  A
C1846      H1854   1.085       .  S
C1855      C1856   1.400       .  A
C1855      C1860   1.403       .  A
C1856      C1857   1.397       .  A
C1856      H1869   1.084       .  S
C1857      C1858   1.415       .  A
C1857      H1870   1.075       .  S
C1858      C1864   1.432   1_655  A
C1858      C1859   1.422       .  A
C1859      C1861   1.400       .  A
C1859      C1860   1.409       .  A
C1860      H1871   1.084       .  S
C1861      C1862   1.392   1_655  A
C1861      H1872   1.084       .  S
C1862      C1863   1.400       .  A
C1862      H1873   1.084       .  S
C1863      C1864   1.423       .  A
C1863      C1868   1.410       .  A
C1864      C1865   1.415       .  A
C1865      C1866   1.396       .  A
C1865      H1874   1.075       .  S
C1866      C1867   1.400       .  A
C1866      H1875   1.084       .  S
C1867      C1868   1.403       .  A
C1868      H1876   1.084       .  S
C1877      C1878   1.400       .  A
C1877      C1882   1.400       .  A
C1878      C1879   1.397       .  A
C1878      H1891   1.083       .  S
C1879      C1880   1.415       .  A
C1879      H1892   1.078       .  S
C1880      C1886   1.430       .  A
C1880      C1881   1.423       .  A
C1881      C1883   1.399       .  A
C1881      C1882   1.404       .  A
C1882      H1893   1.085       .  S
C1883      C1884   1.389       .  A
C1883      H1894   1.084       .  S
C1884      C1885   1.399       .  A
C1884      H1895   1.084       .  S
C1885      C1886   1.423       .  A
C1885      C1890   1.404       .  A
C1886      C1887   1.416       .  A
C1887      C1888   1.397       .  A
C1887      H1896   1.078       .  S
C1888      C1889   1.399       .  A
C1888      H1897   1.083       .  S
C1889      C1890   1.400       .  A
C1890      H1898   1.085       .  S
C1899      C1900   1.400       .  A
C1899      C1904   1.402       .  A
C1900      C1901   1.398       .  A
C1900      H1913   1.083       .  S
C1901      C1902   1.416       .  A
C1901      H1914   1.077       .  S
C1902      C1908   1.432       .  A
C1902      C1903   1.422       .  A
C1903      C1905   1.400       .  A
C1903      C1904   1.407       .  A
C1904      H1915   1.084       .  S
C1905      C1906   1.391       .  A
C1905      H1916   1.084       .  S
C1906      C1907   1.400       .  A
C1906      H1917   1.084       .  S
C1907      C1908   1.423       .  A
C1907      C1912   1.408       .  A
C1908      C1909   1.414       .  A
C1909      C1910   1.396       .  A
C1909      H1918   1.077       .  S
C1910      C1911   1.400       .  A
C1910      H1919   1.083       .  S
C1911      C1912   1.402       .  A
C1912      H1920   1.084       .  S
C1921      C1922   1.399       .  A
C1921      C1926   1.401       .  A
C1922      C1923   1.396       .  A
C1922      H1935   1.083       .  S
C1923      C1924   1.415       .  A
C1923      H1936   1.077       .  S
C1924      C1930   1.430       .  A
C1924      C1925   1.423       .  A
C1925      C1927   1.399       .  A
C1925      C1926   1.405       .  A
C1926      H1937   1.085       .  S
C1927      C1928   1.390       .  A
C1927      H1938   1.084       .  S
C1928      C1929   1.400       .  A
C1928      H1939   1.084       .  S
C1929      C1930   1.422       .  A
C1929      C1934   1.404       .  A
C1930      C1931   1.416       .  A
C1931      C1932   1.397       .  A
C1931      H1940   1.077       .  S
C1932      C1933   1.399       .  A
C1932      H1941   1.083       .  S
C1933      C1934   1.402       .  A
C1934      H1942   1.085       .  S
C1943      C1944   1.401       .  A
C1943      C1948   1.400       .  A
C1944      C1945   1.397       .  A
C1944      H1957   1.083       .  S
C1945      C1946   1.415       .  A
C1945      H1958   1.077       .  S
C1946      C1952   1.431       .  A
C1946      C1947   1.423       .  A
C1947      C1949   1.399       .  A
C1947      C1948   1.406       .  A
C1948      H1959   1.084       .  S
C1949      C1950   1.390       .  A
C1949      H1960   1.084       .  S
C1950      C1951   1.400       .  A
C1950      H1961   1.084       .  S
C1951      C1952   1.423       .  A
C1951      C1956   1.406       .  A
C1952      C1953   1.416       .  A
C1953      C1954   1.398       .  A
C1953      H1962   1.077       .  S
C1954      C1955   1.400       .  A
C1954      H4015   1.083       .  S
C1955      C1956   1.402       .  A
C1956      H1964   1.084       .  S
H1963      C4006   1.083       .  S
C1965      C1966   1.400       .  A
C1965      C1970   1.400       .  A
C1966      C1967   1.398       .  A
C1966      H1979   1.083       .  S
C1967      C1968   1.416       .  A
C1967      H1980   1.078       .  S
C1968      C1974   1.431       .  A
C1968      C1969   1.423       .  A
C1969      C1971   1.399       .  A
C1969      C1970   1.404       .  A
C1970      H1981   1.085       .  S
C1971      C1972   1.388       .  A
C1971      H1982   1.084       .  S
C1972      C1973   1.399       .  A
C1972      H1983   1.084       .  S
C1973      C1974   1.423       .  A
C1973      C1978   1.403       .  A
C1974      C1975   1.416       .  A
C1975      C1976   1.399       .  A
C1975      H1984   1.078       .  S
C1976      C1977   1.400       .  A
C1976      H1985   1.083       .  S
C1977      C1978   1.400       .  A
C1978      H1986   1.085       .  S
C1987      C1988   1.400       .  A
C1987      C1992   1.402       .  A
C1988      C1989   1.396       .  A
C1988      H2001   1.083       .  S
C1989      C1990   1.416       .  A
C1989      H2002   1.077       .  S
C1990      C1996   1.431       .  A
C1990      C1991   1.422       .  A
C1991      C1993   1.400       .  A
C1991      C1992   1.407       .  A
C1992      H2003   1.084       .  S
C1993      C1994   1.392       .  A
C1993      H2004   1.084       .  S
C1994      C1995   1.400       .  A
C1994      H2005   1.084       .  S
C1995      C1996   1.424       .  A
C1995      C2000   1.410       .  A
C1996      C1997   1.413       .  A
C1997      C1998   1.394       .  A
C1997      H2006   1.077       .  S
C1998      C1999   1.401       .  A
C1998      H2007   1.083       .  S
C1999      C2000   1.402       .  A
C2000      H2008   1.084       .  S
C2009      C2010   1.400       .  A
C2009      C2014   1.402       .  A
C2010      C2011   1.398       .  A
C2010      H2023   1.083       .  S
C2011      C2012   1.415       .  A
C2011      H2024   1.077       .  S
C2012      C2018   1.432       .  A
C2012      C2013   1.423       .  A
C2013      C2015   1.400       .  A
C2013      C2014   1.408       .  A
C2014      H2025   1.084       .  S
C2015      C2016   1.391       .  A
C2015      H2026   1.084       .  S
C2016      C2017   1.400       .  A
C2016      H2027   1.084       .  S
C2017      C2018   1.423       .  A
C2017      C2022   1.407       .  A
C2018      C2019   1.416       .  A
C2019      C2020   1.398       .  A
C2019      H2028   1.077       .  S
C2020      C2021   1.399       .  A
C2020      H2029   1.083       .  S
C2021      C2022   1.403       .  A
C2022      H4082   1.084       .  S
H2030      C4074   1.084       .  S
C2031      C2032   1.400       .  A
C2031      C2036   1.399       .  A
C2032      C2033   1.397       .  A
C2032      H2045   1.083       .  S
C2033      C2034   1.415       .  A
C2033      H2046   1.077       .  S
C2034      C2040   1.431   1_655  A
C2034      C2035   1.423       .  A
C2035      C2037   1.399       .  A
C2035      C2036   1.404       .  A
C2036      H2047   1.085       .  S
C2037      C2038   1.388   1_655  A
C2037      H2048   1.084       .  S
C2038      C2039   1.399       .  A
C2038      H2049   1.084       .  S
C2039      C2040   1.422       .  A
C2039      C2044   1.403       .  A
C2040      C2041   1.416       .  A
C2041      C2042   1.399       .  A
C2041      H2050   1.077   1_455  S
C2042      C2043   1.400       .  A
C2042      H2051   1.083       .  S
C2043      C2044   1.401       .  A
C2044      H2052   1.085       .  S
In2053     O2055   2.246       .  S
In2053     O2056   2.255       .  S
In2053     O2064   2.260       .  S
In2053     O2058   2.255       .  S
In2053     O2060   2.260       .  S
In2053     O2061   2.247       .  S
In2053     O2062   2.235       .  S
In2053     O2065   2.247       .  S
C2054      O2060   1.263       .  A
C2054      O2062   1.260       .  A
C2054      C4095   1.478       .  S
O2055      C2063   1.260       .  A
O2056      C2063   1.261       .  A
C2057      O2064   1.260       .  A
C2057      O2058   1.260       .  A
C2057      C4061   1.483       .  S
C2059      O2061   1.260       .  A
C2059      O2065   1.262       .  A
C2059      C4017   1.478       .  S
C2063      C4039   1.480       .  S
In2066     O2068   2.244       .  S
In2066     O2069   2.250       .  S
In2066     O2077   2.259       .  S
In2066     O2071   2.246       .  S
In2066     O2073   2.259       .  S
In2066     O2074   2.260       .  S
In2066     O2075   2.243       .  S
In2066     O2078   2.255       .  S
C2067      O2073   1.260       .  A
C2067      O2075   1.258       .  A
C2067      C4083   1.477       .  S
O2068      C2076   1.261       .  A
O2069      C2076   1.262       .  A
C2070      O2077   1.262       .  A
C2070      O2071   1.259       .  A
C2070      C3995   1.481       .  S
C2072      O2074   1.260       .  A
C2072      O2078   1.260       .  A
C2072      C3951   1.482       .  S
C2076      C3973   1.478       .  S
In2079     O2081   2.237       .  S
In2079     O2082   2.256       .  S
In2079     O2090   2.262       .  S
In2079     O2084   2.235       .  S
In2079     O2086   2.245       .  S
In2079     O2087   2.247       .  S
In2079     O2088   2.241       .  S
In2079     O2091   2.259       .  S
C2080      O2086   1.261       .  A
C2080      O2088   1.260       .  A
C2080      C3929   1.474       .  S
O2081      C2089   1.260       .  A
O2082      C2089   1.263       .  A
C2083      O2090   1.262       .  A
C2083      O2084   1.259       .  A
C2083      C3919   1.479       .  S
C2085      O2087   1.260       .  A
C2085      O2091   1.259       .  A
C2085      C3863   1.479       .  S
C2089      C3897   1.479       .  S
In2092     O2094   2.236       .  S
In2092     O2095   2.277       .  S
In2092     O2103   2.251       .  S
In2092     O2099   2.243       .  S
In2092     O2100   2.253       .  S
In2092     O2101   2.238       .  S
In2092     O2104   2.257       .  S
C2093      O2099   1.262       .  A
C2093      O2101   1.262       .  A
C2093      C3941   1.475       .  S
O2094      C2102   1.258       .  A
O2095      C2102   1.262       .  A
C2096      O2097   1.261       .  A
C2096      C4073   1.482       .  S
C2098      O2100   1.262       .  A
C2098      O2104   1.260       .  A
C2098      C3853   1.483       .  S
C2102      C4051   1.482       .  S
In2105     O2107   2.233       .  S
In2105     O2108   2.276       .  S
In2105     O2116   2.265       .  S
In2105     O2110   2.248       .  S
In2105     O2112   2.242       .  S
In2105     O2113   2.251       .  S
In2105     O2114   2.259       .  S
In2105     O2117   2.261       .  S
C2106      O2112   1.261       .  A
C2106      O2114   1.262       .  A
C2106      C3819   1.480       .  S
O2107      C2115   1.258       .  A
O2108      C2115   1.261       .  A
C2109      O2116   1.260       .  A
C2109      O2110   1.258       .  A
C2109      C3907   1.481       .  S
C2111      O2113   1.260       .  A
C2111      O2117   1.261       .  A
C2111      C3797   1.483       .  S
C2115      C3885   1.480       .  S
In2118     O2120   2.232       .  S
In2118     O2121   2.260       .  S
In2118     O2129   2.258       .  S
In2118     O2123   2.254       .  S
In2118     O2125   2.247       .  S
In2118     O2126   2.257       .  S
In2118     O2127   2.250       .  S
In2118     O2130   2.248       .  S
C2119      O2125   1.260       .  A
C2119      O2127   1.260       .  A
C2119      C3831   1.475       .  S
O2120      C2128   1.260       .  A
O2121      C2128   1.263       .  A
C2122      C4007   1.482   1_554  S
C2124      O2126   1.259       .  A
C2124      O2130   1.259       .  A
C2124      C3775   1.479       .  S
C2128      C3985   1.477       .  S
In2131     O2133   2.243       .  S
In2131     O2134   2.244       .  S
In2131     O2142   2.256       .  S
In2131     O2136   2.245       .  S
In2131     O2138   2.242       .  S
In2131     O2139   2.270       .  S
In2131     O2140   2.246       .  S
In2131     O2143   2.224       .  S
C2132      O2138   1.261       .  A
C2132      O2140   1.260       .  A
C2132      C3765   1.474       .  S
O2133      C2141   1.259       .  A
O2134      C2141   1.261       .  A
C2135      O2142   1.261       .  A
C2135      O2136   1.259       .  A
C2137      O2139   1.263       .  A
C2137      O2143   1.260       .  A
C2137      C3709   1.479       .  S
C2141      C3687   1.476       .  S
In2144     O2146   2.252       .  S
In2144     O2147   2.249       .  S
In2144     O2155   2.256       .  S
In2144     O2149   2.246       .  S
In2144     O2151   2.257       .  S
In2144     O2152   2.232       .  S
In2144     O2153   2.234       .  S
In2144     O2156   2.264       .  S
C2145      O2151   1.263       .  A
C2145      O2153   1.261       .  A
C2145      C3753   1.478       .  S
O2146      C2154   1.259       .  A
O2147      C2154   1.260       .  A
C2148      O2155   1.261       .  A
C2148      O2149   1.261       .  A
C2148      C3665   1.481       .  S
C2150      O2152   1.259       .  A
C2150      O2156   1.262       .  A
C2150      C3655   1.477       .  S
C2154      C3621   1.479       .  S
In2157     O2159   2.249       .  S
In2157     O2160   2.251       .  S
In2157     O2168   2.259       .  S
In2157     O2162   2.252       .  S
In2157     O2164   2.240       .  S
In2157     O2165   2.255       .  S
In2157     O2166   2.255       .  S
In2157     O2169   2.238       .  S
C2158      O2164   1.262       .  A
C2158      O2166   1.262       .  A
C2158      C3599   1.480       .  S
O2159      C2167   1.260       .  A
O2160      C2167   1.261       .  A
C2161      C3567   1.483       .  S
C2163      O2165   1.261       .  A
C2163      O2169   1.259       .  A
C2163      C3589   1.476       .  S
C2167      C3533   1.479       .  S
In2170     O2172   2.248       .  S
In2170     O2173   2.245       .  S
In2170     O2181   2.257       .  S
In2170     O2175   2.254       .  S
In2170     O2177   2.258       .  S
In2170     O2178   2.255       .  S
In2170     O2179   2.245       .  S
In2170     O2182   2.237       .  S
C2171      O2177   1.262       .  A
C2171      O2179   1.258       .  A
C2171      C3611   1.478       .  S
O2172      C2180   1.260       .  A
O2173      C2180   1.262       .  A
C2174      O2181   1.260       .  A
C2174      O2175   1.260       .  A
C2174      C3677   1.481       .  S
C2176      O2178   1.263       .  A
C2176      O2182   1.262       .  A
C2176      C3643   1.480       .  S
C2180      C3511   1.478       .  S
In2183     O2185   2.242       .  S
In2183     O2186   2.254       .  S
In2183     O2194   2.258       .  S
In2183     O2188   2.250       .  S
In2183     O2190   2.262       .  S
In2183     O2191   2.265       .  S
In2183     O2192   2.244       .  S
In2183     O2195   2.217       .  S
C2184      O2190   1.263       .  A
C2184      O2192   1.261       .  A
C2184      C3489   1.483       .  S
O2185      C2193   1.261       .  A
O2186      C2193   1.262       .  A
C2187      O2194   1.260       .  A
C2187      O2188   1.260       .  A
C2187      C3743   1.481       .  S
C2189      O2191   1.263       .  A
C2189      O2195   1.259       .  A
C2189      C3721   1.476       .  S
C2193      C3963   1.480       .  S
In2196     O2198   2.244       .  S
In2196     O2199   2.256       .  S
In2196     O2207   2.269       .  S
In2196     O2201   2.257       .  S
In2196     O2203   2.260       .  S
In2196     O2204   2.259       .  S
In2196     O2205   2.249       .  S
In2196     O2208   2.226       .  S
C2197      O2203   1.263       .  A
C2197      O2205   1.260       .  A
C2197      C3501   1.482       .  S
O2198      C2206   1.261       .  A
O2199      C2206   1.261       .  A
C2200      O2207   1.259       .  A
C2200      O2201   1.258       .  A
C2200      C3555   1.484       .  S
C2202      O2204   1.263       .  A
C2202      O2208   1.260       .  A
C2202      C3577   1.476       .  S
C2206      C4029   1.480       .  S
In2209     O2211   2.266       .  S
In2209     O2212   2.224       .  S
In2209     O2220   2.241       .  S
In2209     O2214   2.243       .  S
In2209     O2216   2.259       .  S
In2209     O2217   2.253       .  S
In2209     O2218   2.240       .  S
In2209     O2221   2.243       .  S
C2210      O2216   1.260       .  A
C2210      O2218   1.258       .  A
C2210      C3467   1.476       .  S
O2211      C2219   1.263       .  A
O2212      C2219   1.260       .  A
C2213      O2220   1.259       .  A
C2213      O2214   1.260       .  A
C2213      C3445   1.474       .  S
C2215      O2217   1.260       .  A
C2215      O2221   1.258       .  A
C2215      C3401   1.476       .  S
C2219      C3423   1.478       .  S
In2222     O2224   2.250       .  S
In2222     O2225   2.246       .  S
In2222     O2233   2.255       .  S
In2222     O2227   2.250       .  S
In2222     O2229   2.258       .  S
In2222     O2230   2.242       .  S
In2222     O2231   2.247       .  S
In2222     O2234   2.260       .  S
C2223      O2229   1.261       .  A
C2223      O2231   1.259       .  A
C2223      C3479   1.479       .  S
O2224      C2232   1.260       .  A
O2225      C2232   1.259       .  A
C2226      O2233   1.261       .  A
C2226      O2227   1.261       .  A
C2226      C3391   1.481       .  S
C2228      O2230   1.260       .  A
C2228      O2234   1.262       .  A
C2228      C3335   1.481       .  S
C2232      C3357   1.475       .  S
In2235     O2237   2.240       .  S
In2235     O2238   2.243       .  S
In2235     O2246   2.263       .  S
In2235     O2240   2.225       .  S
In2235     O2242   2.253       .  S
In2235     O2243   2.255       .  S
In2235     O2244   2.246       .  S
In2235     O2247   2.233       .  S
C2236      O2242   1.260       .  A
C2236      O2244   1.258       .  A
C2236      C3325   1.475       .  S
O2237      C2245   1.262       .  A
O2238      C2245   1.262       .  A
C2239      O2246   1.262       .  A
C2239      O2240   1.260       .  A
C2241      O2243   1.259       .  A
C2241      O2247   1.258       .  A
C2241      C3699   1.475       .  S
C2245      C3435   1.475       .  S
In2248     O2250   2.236       .  S
In2248     O2251   2.252       .  S
In2248     O2259   2.250       .  S
In2248     O2253   2.238       .  S
In2248     O2255   2.268       .  S
In2248     O2256   2.241       .  S
In2248     O2257   2.210       .  S
In2248     O2260   2.246       .  S
C2249      O2255   1.263       .  A
C2249      O2257   1.259       .  A
C2249      C3313   1.475       .  S
O2250      C2258   1.258       .  A
O2251      C2258   1.262       .  A
C2252      O2259   1.259       .  A
C2252      O2253   1.258       .  A
C2252      C3291   1.472       .  S
C2254      O2256   1.261       .  A
C2254      O2260   1.262       .  A
C2254      C3633   1.478       .  S
C2258      C3269   1.475       .  S
In2261     O2263   2.254       .  S
In2261     O2264   2.232       .  S
In2261     O2272   2.255       .  S
In2261     O2266   2.244       .  S
In2261     O2268   2.255       .  S
In2261     O2269   2.237       .  S
In2261     O2270   2.243       .  S
In2261     O2273   2.257       .  S
C2262      O2268   1.261       .  A
C2262      O2270   1.259       .  A
C2262      C3247   1.478       .  S
O2263      C2271   1.262       .  A
O2264      C2271   1.259       .  A
C2265      O2272   1.261       .  A
C2265      O2266   1.261       .  A
C2265      C3303   1.479       .  S
C2267      O2269   1.260       .  A
C2267      O2273   1.261       .  A
C2267      C3225   1.478       .  S
C2271      C3281   1.475       .  S
In2274     O2276   2.245       .  S
In2274     O2277   2.247       .  S
In2274     O2285   2.256       .  S
In2274     O2281   2.244       .  S
In2274     O2282   2.245       .  S
In2274     O2283   2.248       .  S
In2274     O2286   2.257       .  S
C2275      O2281   1.260       .  A
C2275      O2283   1.261       .  A
C2275      C3259   1.477       .  S
O2276      C2284   1.261       .  A
O2277      C2284   1.262       .  A
C2278      O2279   1.261       .  A
C2278      C3379   1.480       .  S
C2280      O2282   1.259       .  A
C2280      O2286   1.259       .  A
C2280      C3203   1.477       .  S
C2284      C3369   1.477       .  S
In2287     O2289   2.246       .  S
In2287     O2290   2.230       .  S
In2287     O2298   2.239       .  S
In2287     O2292   2.253       .  S
In2287     O2294   2.253       .  S
In2287     O2295   2.259       .  S
In2287     O2296   2.232       .  S
In2287     O2299   2.229       .  S
C2288      O2294   1.265       .  A
C2288      O2296   1.260       .  A
C2288      C3193   1.477       .  S
O2289      C2297   1.262       .  A
O2290      C2297   1.262       .  A
C2291      O2298   1.259       .  A
C2291      O2292   1.261       .  A
C2291      C3159   1.476       .  S
C2293      O2295   1.262       .  A
C2293      O2299   1.259       .  A
C2293      C3137   1.474       .  S
C2297      C3413   1.475       .  S
In2300     O2302   2.259       .  S
In2300     O2303   2.249       .  S
In2300     O2311   2.252       .  S
In2300     O2305   2.260       .  S
In2300     O2307   2.260       .  S
In2300     O2308   2.271       .  S
In2300     O2309   2.229       .  S
In2300     O2312   2.241       .  S
C2301      O2307   1.264       .  A
C2301      O2309   1.261       .  A
C2301      C3181   1.478       .  S
O2302      C2310   1.260       .  A
O2303      C2310   1.261       .  A
C2304      O2311   1.259       .  A
C2304      O2305   1.260       .  A
C2304      C3115   1.482       .  S
C2306      O2308   1.262       .  A
C2306      O2312   1.260       .  A
C2306      C3093   1.482       .  S
C2310      C3347   1.481       .  S
In2313     O2315   2.255       .  S
In2313     O2316   2.240       .  S
In2313     O2324   2.263       .  S
In2313     O2318   2.247       .  S
In2313     O2320   2.259       .  S
In2313     O2321   2.259       .  S
In2313     O2322   2.238       .  S
In2313     O2325   2.234       .  S
C2314      O2320   1.262       .  A
C2314      O2322   1.259       .  A
C2314      C3071   1.479       .  S
O2315      C2323   1.260       .  A
O2316      C2323   1.259       .  A
C2317      O2324   1.261       .  A
C2317      O2318   1.260       .  A
C2317      C3049   1.482       .  S
C2319      O2321   1.262       .  A
C2319      O2325   1.260       .  A
C2319      C3027   1.478       .  S
C2323      C3875   1.477       .  S
In2326     O2328   2.269       .  S
In2326     O2329   2.256       .  S
In2326     O2337   2.275       .  S
In2326     O2333   2.247       .  S
In2326     O2334   2.233       .  S
In2326     O2335   2.250       .  S
In2326     O2338   2.272       .  S
C2327      O2333   1.261       .  A
C2327      O2335   1.260       .  A
C2327      C3083   1.478       .  S
O2328      C2336   1.260       .  A
O2329      C2336   1.260       .  A
C2330      O2331   1.256       .  A
C2330      C3127   1.484       .  S
C2332      O2334   1.261       .  A
C2332      O2338   1.264       .  A
C2332      C3105   1.484       .  S
C2336      C3841   1.485       .  S
In2339     O2341   2.256       .  S
In2339     O2342   2.240       .  S
In2339     O2350   2.261       .  S
In2339     O2344   2.233       .  S
In2339     O2346   2.245       .  S
In2339     O2347   2.250       .  S
In2339     O2348   2.243       .  S
In2339     O2351   2.235       .  S
C2340      O2346   1.261       .  A
C2340      O2348   1.259       .  A
C2340      C3005   1.476       .  S
O2341      C2349   1.261       .  A
O2342      C2349   1.260       .  A
C2343      O2350   1.262       .  A
C2343      O2344   1.259       .  A
C2345      O2347   1.262       .  A
C2345      O2351   1.260       .  A
C2345      C3149   1.476       .  S
C2349      C2983   1.478       .  S
In2352     O2354   2.257       .  S
In2352     O2355   2.235       .  S
In2352     O2363   2.254       .  S
In2352     O2357   2.248       .  S
In2352     O2359   2.251       .  S
In2352     O2360   2.251       .  S
In2352     O2361   2.248       .  S
In2352     O2364   2.236       .  S
C2353      O2359   1.262       .  A
C2353      O2361   1.260       .  A
C2353      C3017   1.477       .  S
O2354      C2362   1.260       .  A
O2355      C2362   1.260       .  A
C2356      O2363   1.260       .  A
C2356      O2357   1.261       .  A
C2356      C3061   1.481       .  S
C2358      O2360   1.262       .  A
C2358      O2364   1.261       .  A
C2358      C3039   1.477       .  S
C2362      C2961   1.477       .  S
In2365     O2367   2.258       .  S
In2365     O2368   2.257       .  S
In2365     O2376   2.251       .  S
In2365     O2370   2.258       .  S
In2365     O2372   2.262       .  S
In2365     O2373   2.238       .  S
In2365     O2374   2.255       .  S
In2365     O2377   2.250       .  S
C2366      O2372   1.260       .  A
C2366      O2374   1.258       .  A
C2366      C2939   1.482       .  S
O2367      C2375   1.260       .  A
O2368      C2375   1.260       .  A
C2369      C2929   1.482       .  S
C2371      O2373   1.261       .  A
C2371      O2377   1.262       .  A
C2371      C2907   1.476       .  S
C2375      C3787   1.482       .  S
In2378     O2380   2.254       .  S
In2378     O2381   2.259       .  S
In2378     O2389   2.262       .  S
In2378     O2383   2.248       .  S
In2378     O2385   2.252       .  S
In2378     O2386   2.271       .  S
In2378     O2387   2.251       .  S
In2378     O2390   2.242       .  S
C2379      O2385   1.263       .  A
C2379      O2387   1.263       .  A
C2379      C2951   1.482       .  S
O2380      C2388   1.261       .  A
O2381      C2388   1.261       .  A
C2382      O2389   1.260       .  A
C2382      O2383   1.259       .  A
C2382      C2873   1.481       .  S
C2384      O2386   1.260       .  A
C2384      O2390   1.257       .  A
C2384      C2851   1.479       .  S
C2388      C3809   1.484       .  S
In2391     O2393   2.255       .  S
In2391     O2394   2.249       .  S
In2391     O2402   2.275       .  S
In2391     O2396   2.237       .  S
In2391     O2398   2.262       .  S
In2391     O2399   2.262       .  S
In2391     O2400   2.248       .  S
In2391     O2403   2.235       .  S
C2392      O2398   1.261       .  A
C2392      O2400   1.259       .  A
C2392      C2829   1.481       .  S
O2393      C2401   1.260       .  A
O2394      C2401   1.259       .  A
C2395      O2402   1.262       .  A
C2395      O2396   1.259       .  A
C2395      C2885   1.483       .  S
C2397      O2399   1.263       .  A
C2397      O2403   1.261       .  A
C2397      C2863   1.481       .  S
C2401      C3237   1.478       .  S
In2404     O2406   2.255       .  S
In2404     O2407   2.243       .  S
In2404     O2415   2.256       .  S
In2404     O2411   2.259       .  S
In2404     O2412   2.265       .  S
In2404     O2413   2.234       .  S
In2404     O2416   2.235       .  S
C2405      O2411   1.263       .  A
C2405      O2413   1.260       .  A
C2405      C2841   1.478       .  S
O2406      C2414   1.260       .  A
O2407      C2414   1.260       .  A
C2408      O2409   1.260       .  A
C2408      C2785   1.479       .  S
C2410      O2412   1.262       .  A
C2410      O2416   1.259       .  A
C2410      C2807   1.478       .  S
C2414      C3215   1.478       .  S
In2417     O2419   2.260       .  S
In2417     O2420   2.241       .  S
In2417     O2428   2.244       .  S
In2417     O2422   2.241       .  S
In2417     O2424   2.263       .  S
In2417     O2425   2.254       .  S
In2417     O2426   2.231       .  S
In2417     O2429   2.237       .  S
C2418      O2424   1.261       .  A
C2418      O2426   1.259       .  A
C2418      C2763   1.477       .  S
O2419      C2427   1.262       .  A
O2420      C2427   1.259       .  A
C2421      O2428   1.260       .  A
C2421      O2422   1.259       .  A
C2421      C2797   1.474       .  S
C2423      O2425   1.261       .  A
C2423      O2429   1.259       .  A
C2423      C2819   1.477       .  S
C2427      C2741   1.480       .  S
In2430     O2432   2.250       .  S
In2430     O2433   2.266       .  S
In2430     O2441   2.257       .  S
In2430     O2435   2.246       .  S
In2430     O2437   2.254       .  S
In2430     O2438   2.236       .  S
In2430     O2439   2.244       .  S
In2430     O2442   2.255       .  S
C2431      O2437   1.258       .  A
C2431      O2439   1.260       .  A
C2431      C2775   1.476       .  S
O2432      C2440   1.259       .  A
O2433      C2440   1.261       .  A
C2434      O2441   1.263       .  A
C2434      O2435   1.261       .  A
C2434      C2917   1.482       .  S
C2436      O2438   1.260       .  A
C2436      O2442   1.263       .  A
C2436      C2895   1.477       .  S
C2440      C2719   1.482       .  S
In2443     O2445   2.242       .  S
In2443     O2446   2.236       .  S
In2443     O2454   2.249       .  S
In2443     O2448   2.254       .  S
In2443     O2450   2.248       .  S
In2443     O2451   2.252       .  S
In2443     O2452   2.262       .  S
In2443     O2455   2.246       .  S
C2444      O2450   1.259       .  A
C2444      O2452   1.259       .  A
C2444      C2697   1.480       .  S
O2445      C2453   1.261       .  A
O2446      C2453   1.261       .  A
C2447      O2454   1.261       .  A
C2447      O2448   1.262       .  A
C2447      C2675   1.480       .  S
C2449      O2451   1.259       .  A
C2449      O2455   1.260       .  A
C2449      C2753   1.477       .  S
C2453      C2653   1.473       .  S
In2456     O2458   2.245       .  S
In2456     O2459   2.257       .  S
In2456     O2467   2.252       .  S
In2456     O2461   2.248       .  S
In2456     O2463   2.261       .  S
In2456     O2464   2.247       .  S
In2456     O2465   2.242       .  S
In2456     O2468   2.249       .  S
C2457      O2463   1.261       .  A
C2457      O2465   1.259       .  A
C2457      C2709   1.479       .  S
O2458      C2466   1.260       .  A
O2459      C2466   1.261       .  A
C2460      O2467   1.261       .  A
C2460      O2461   1.261       .  A
C2460      C2631   1.480       .  S
C2462      O2464   1.262       .  A
C2462      O2468   1.262       .  A
C2462      C2731   1.480       .  S
C2466      C2609   1.478       .  S
In2469     O2471   2.241       .  S
In2469     O2472   2.263       .  S
In2469     O2480   2.251       .  S
In2469     O2474   2.246       .  S
In2469     O2476   2.247       .  S
In2469     O2477   2.259       .  S
In2469     O2478   2.254       .  S
In2469     O2481   2.251       .  S
C2470      O2476   1.260       .  A
C2470      O2478   1.261       .  A
C2470      C2599   1.479       .  S
O2471      C2479   1.259       .  A
O2472      C2479   1.260       .  A
C2473      O2480   1.261       .  A
C2473      O2474   1.261       .  A
C2475      O2477   1.261       .  A
C2475      O2481   1.260       .  A
C2475      C2995   1.482       .  S
C2479      C2621   1.478       .  S
In2482     O2484   2.230       .  S
In2482     O2485   2.283       .  S
In2482     O2493   2.269       .  S
In2482     O2487   2.237       .  S
In2482     O2489   2.252       .  S
In2482     O2490   2.233       .  S
In2482     O2491   2.246       .  S
In2482     O2494   2.249       .  S
C2483      O2489   1.263       .  A
C2483      O2491   1.262       .  A
C2483      C2587   1.480       .  S
O2484      C2492   1.253       .  A
O2485      C2492   1.259       .  A
C2486      O2493   1.260       .  A
C2486      O2487   1.259       .  A
C2486      C2565   1.479       .  S
C2488      O2490   1.262       .  A
C2488      O2494   1.262       .  A
C2488      C2973   1.476       .  S
C2492      C2555   1.477       .  S
In2495     O2497   2.238       .  S
In2495     O2498   2.258       .  S
In2495     O2506   2.262       .  S
In2495     O2500   2.225       .  S
In2495     O2502   2.269       .  S
In2495     O2503   2.249       .  S
In2495     O2504   2.240       .  S
In2495     O2507   2.253       .  S
C2496      O2502   1.260       .  A
C2496      O2504   1.259       .  A
C2496      C2521   1.481       .  S
O2497      C2505   1.261       .  A
O2498      C2505   1.262       .  A
C2499      O2506   1.262       .  A
C2499      O2500   1.260       .  A
C2499      C2577   1.477       .  S
C2501      O2503   1.260       .  A
C2501      O2507   1.260       .  A
C2501      C3523   1.479       .  S
C2505      C2543   1.479       .  S
In2508     O2510   2.235       .  S
In2508     O2511   2.250       .  S
In2508     O2519   2.264       .  S
In2508     O2515   2.246       .  S
In2508     O2516   2.253       .  S
In2508     O2517   2.260       .  S
In2508     O2520   2.239       .  S
C2509      O2515   1.259       .  A
C2509      O2517   1.258       .  A
C2509      C2533   1.478       .  S
O2510      C2518   1.260       .  A
O2511      C2518   1.262       .  A
C2512      O2513   1.260       .  A
C2512      C2687   1.478       .  S
C2514      O2516   1.261       .  A
C2514      O2520   1.259       .  A
C2514      C3545   1.476       .  S
C2518      C2665   1.474       .  S
C2521      C2522   1.399       .  A
C2521      C2526   1.404       .  A
C2522      C2523   1.392       .  A
C2522      H2535   1.083       .  S
C2523      C2524   1.413       .  A
C2523      H2536   1.077       .  S
C2524      C2530   1.430       .  A
C2524      C2525   1.423       .  A
C2525      C2527   1.401       .  A
C2525      C2526   1.410       .  A
C2526      H2537   1.084       .  S
C2527      C2528   1.393       .  A
C2527      H2538   1.084       .  S
C2528      C2529   1.401       .  A
C2528      H2539   1.084       .  S
C2529      C2530   1.422       .  A
C2529      C2534   1.408       .  A
C2530      C2531   1.415       .  A
C2531      C2532   1.393       .  A
C2531      H2540   1.077       .  S
C2532      C2533   1.398       .  A
C2532      H2541   1.083       .  S
C2533      C2534   1.403       .  A
C2534      H2542   1.084       .  S
C2543      C2544   1.399       .  A
C2543      C2548   1.402       .  A
C2544      C2545   1.394       .  A
C2544      H2557   1.083       .  S
C2545      C2546   1.414       .  A
C2545      H2558   1.078   1_565  S
C2546      C2547   1.422       .  A
C2547      C2549   1.401       .  A
C2547      C2548   1.408       .  A
C2548      H2559   1.085       .  S
C2549      H2560   1.084       .  S
C2550      C2551   1.400   1_565  A
C2550      H2561   1.084       .  S
C2551      C2552   1.424       .  A
C2551      C2556   1.409       .  A
C2552      C2553   1.412       .  A
C2553      C2554   1.391       .  A
C2553      H2562   1.078       .  S
C2554      C2555   1.400       .  A
C2554      H2563   1.083       .  S
C2555      C2556   1.402       .  A
C2556      H2564   1.084       .  S
C2565      C2566   1.398       .  A
C2565      C2570   1.404       .  A
C2566      C2567   1.391       .  A
C2566      H2579   1.083       .  S
C2567      C2568   1.413       .  A
C2567      H2580   1.077       .  S
C2568      C2574   1.428   1_545  A
C2568      C2569   1.422       .  A
C2569      C2571   1.401       .  A
C2569      C2570   1.410       .  A
C2570      H2581   1.084       .  S
C2571      C2572   1.394   1_545  A
C2571      H2582   1.084       .  S
C2572      C2573   1.401       .  A
C2572      H2583   1.084       .  S
C2573      C2574   1.423       .  A
C2573      C2578   1.410       .  A
C2574      C2575   1.413       .  A
C2575      C2576   1.390       .  A
C2575      H2584   1.077       .  S
C2576      C2577   1.398       .  A
C2576      H2585   1.083       .  S
C2577      C2578   1.404       .  A
C2578      H2586   1.084       .  S
C2587      C2588   1.400       .  A
C2587      C2592   1.402       .  A
C2588      C2589   1.398       .  A
C2588      H2601   1.083       .  S
C2589      C2590   1.415       .  A
C2589      H2602   1.077       .  S
C2590      C2596   1.431       .  A
C2590      C2591   1.422       .  A
C2591      C2593   1.400       .  A
C2591      C2592   1.406       .  A
C2592      H2603   1.084       .  S
C2593      C2594   1.390       .  A
C2593      H2604   1.084       .  S
C2594      C2595   1.399       .  A
C2594      H2605   1.084       .  S
C2595      C2596   1.423       .  A
C2595      C2600   1.406       .  A
C2596      C2597   1.415       .  A
C2597      C2598   1.397       .  A
C2597      H2606   1.077       .  S
C2598      C2599   1.400       .  A
C2598      H2607   1.083       .  S
C2599      C2600   1.401       .  A
C2600      H2608   1.084       .  S
C2609      C2610   1.399       .  A
C2609      C2614   1.402       .  A
C2610      C2611   1.395       .  A
C2610      H2623   1.084       .  S
C2611      C2612   1.415       .  A
C2611      H2624   1.075       .  S
C2612      C2618   1.430       .  A
C2612      C2613   1.422       .  A
C2613      C2615   1.400       .  A
C2613      C2614   1.407       .  A
C2614      H2625   1.084       .  S
C2615      C2616   1.391       .  A
C2615      H2626   1.084       .  S
C2616      C2617   1.400       .  A
C2616      H2627   1.084       .  S
C2617      C2618   1.423       .  A
C2617      C2622   1.408       .  A
C2618      C2619   1.414       .  A
C2619      C2620   1.394       .  A
C2619      H2628   1.075       .  S
C2620      C2621   1.399       .  A
C2620      H2629   1.084       .  S
C2621      C2622   1.402       .  A
C2622      H2630   1.084       .  S
C2631      C2632   1.400       .  A
C2631      C2636   1.401       .  A
C2632      C2633   1.398       .  A
C2632      H2645   1.083       .  S
C2633      C2634   1.416       .  A
C2633      H2646   1.077       .  S
C2634      C2640   1.431       .  A
C2634      C2635   1.423       .  A
C2635      C2637   1.399       .  A
C2635      C2636   1.405       .  A
C2636      H2647   1.084       .  S
C2637      C2638   1.389       .  A
C2637      H2648   1.084       .  S
C2638      C2639   1.399       .  A
C2638      H2649   1.084       .  S
C2639      C2640   1.423       .  A
C2639      C2644   1.405       .  A
C2640      C2641   1.416       .  A
C2641      C2642   1.398       .  A
C2641      H2650   1.077       .  S
C2642      C2643   1.399       .  A
C2642      H2651   1.083       .  S
C2643      C2644   1.400       .  A
C2644      H2652   1.085       .  S
C2653      C2654   1.399       .  A
C2653      C2658   1.400       .  A
C2654      C2655   1.394       .  A
C2654      H2667   1.083       .  S
C2655      C2656   1.415       .  A
C2655      H2668   1.077       .  S
C2656      C2662   1.428       .  A
C2656      C2657   1.422       .  A
C2657      C2659   1.399       .  A
C2657      C2658   1.403       .  A
C2658      H2669   1.085       .  S
C2659      C2660   1.389       .  A
C2659      H2670   1.084       .  S
C2660      C2661   1.399       .  A
C2660      H2671   1.084       .  S
C2661      C2662   1.423       .  A
C2661      C2666   1.405       .  A
C2662      C2663   1.414       .  A
C2663      C2664   1.394       .  A
C2663      H2672   1.077       .  S
C2664      C2665   1.399       .  A
C2664      H2673   1.083       .  S
C2665      C2666   1.400       .  A
C2666      H2674   1.085       .  S
C2675      C2676   1.399       .  A
C2675      C2680   1.402       .  A
C2676      C2677   1.398       .  A
C2676      H2689   1.084       .  S
C2677      C2678   1.416       .  A
C2677      H2690   1.074       .  S
C2678      C2684   1.431       .  A
C2678      C2679   1.422       .  A
C2679      C2681   1.400       .  A
C2679      C2680   1.406       .  A
C2680      H2691   1.084       .  S
C2681      C2682   1.391       .  A
C2681      H2692   1.084       .  S
C2682      C2683   1.400       .  A
C2682      H2693   1.084       .  S
C2683      C2684   1.423       .  A
C2683      C2688   1.406       .  A
C2684      C2685   1.415       .  A
C2685      C2686   1.396       .  A
C2685      H2694   1.074       .  S
C2686      C2687   1.399       .  A
C2686      H2695   1.084       .  S
C2687      C2688   1.402       .  A
C2688      H2696   1.084       .  S
C2697      C2698   1.399       .  A
C2697      C2702   1.403       .  A
C2698      C2699   1.395       .  A
C2698      H2711   1.083       .  S
C2699      C2700   1.415       .  A
C2699      H2712   1.077       .  S
C2700      C2706   1.430   1_565  A
C2700      C2701   1.423       .  A
C2701      C2703   1.400       .  A
C2701      C2702   1.408       .  A
C2702      H2713   1.084       .  S
C2703      C2704   1.391   1_565  A
C2703      H2714   1.084       .  S
C2704      C2705   1.400       .  A
C2704      H2715   1.084       .  S
C2705      C2706   1.423       .  A
C2705      C2710   1.407       .  A
C2706      C2707   1.415       .  A
C2707      C2708   1.395       .  A
C2707      H2716   1.077       .  S
C2708      C2709   1.400       .  A
C2708      H2717   1.083       .  S
C2709      C2710   1.402       .  A
C2710      H2718   1.084       .  S
C2719      C2720   1.401       .  A
C2719      C2724   1.402       .  A
C2720      C2721   1.397       .  A
C2720      H2733   1.083       .  S
C2721      C2722   1.415       .  A
C2721      H2734   1.077       .  S
C2722      C2728   1.432       .  A
C2722      C2723   1.423       .  A
C2723      C2725   1.400       .  A
C2723      C2724   1.408       .  A
C2724      H2735   1.084       .  S
C2725      C2726   1.390       .  A
C2725      H2736   1.084       .  S
C2726      C2727   1.399       .  A
C2726      H2737   1.084       .  S
C2727      C2728   1.422       .  A
C2727      C2732   1.406       .  A
C2728      C2729   1.416       .  A
C2729      C2730   1.398       .  A
C2729      H2738   1.077       .  S
C2730      C2731   1.400       .  A
C2730      H2739   1.083       .  S
C2731      C2732   1.402       .  A
C2732      H2740   1.084       .  S
C2741      C2742   1.401       .  A
C2741      C2746   1.400       .  A
C2742      C2743   1.396       .  A
C2742      H2755   1.083       .  S
C2743      C2744   1.414       .  A
C2743      H2756   1.078       .  S
C2744      C2750   1.430       .  A
C2744      C2745   1.423       .  A
C2745      C2747   1.399       .  A
C2745      C2746   1.406       .  A
C2746      H2757   1.085       .  S
C2747      C2748   1.389       .  A
C2747      H2758   1.084       .  S
C2748      C2749   1.399       .  A
C2748      H2759   1.084       .  S
C2749      C2750   1.422       .  A
C2749      C2754   1.403       .  A
C2750      C2751   1.416       .  A
C2751      C2752   1.397       .  A
C2751      H2760   1.078       .  S
C2752      C2753   1.400       .  A
C2752      H2761   1.083       .  S
C2753      C2754   1.400       .  A
C2754      H2762   1.085       .  S
C2763      C2764   1.399       .  A
C2763      C2768   1.403       .  A
C2764      C2765   1.392       .  A
C2764      H2777   1.083       .  S
C2765      C2766   1.413       .  A
C2765      H2778   1.077       .  S
C2766      C2772   1.427   1_565  A
C2766      C2767   1.423       .  A
C2767      C2769   1.401       .  A
C2767      C2768   1.408       .  A
C2768      H2779   1.084       .  S
C2769      C2770   1.393   1_565  A
C2769      H2780   1.084       .  S
C2770      C2771   1.401       .  A
C2770      H2781   1.084       .  S
C2771      C2772   1.421       .  A
C2771      C2776   1.407       .  A
C2772      C2773   1.414       .  A
C2773      C2774   1.393       .  A
C2773      H2782   1.077       .  S
C2774      C2775   1.398       .  A
C2774      H2783   1.083       .  S
C2775      C2776   1.403       .  A
C2776      H2784   1.084       .  S
C2785      C2786   1.399       .  A
C2785      C2790   1.402       .  A
C2786      C2787   1.395       .  A
C2786      H2799   1.083       .  S
C2787      C2788   1.415       .  A
C2787      H2800   1.077       .  S
C2788      C2794   1.429       .  A
C2788      C2789   1.423       .  A
C2789      C2791   1.400       .  A
C2789      C2790   1.406       .  A
C2790      H2801   1.084       .  S
C2791      C2792   1.390       .  A
C2791      H2802   1.084       .  S
C2792      C2793   1.400       .  A
C2792      H2803   1.084       .  S
C2793      C2794   1.422       .  A
C2793      C2798   1.405       .  A
C2794      C2795   1.415       .  A
C2795      C2796   1.395       .  A
C2795      H2804   1.076       .  S
C2796      C2797   1.398       .  A
C2796      H2805   1.083       .  S
C2797      C2798   1.401       .  A
C2798      H2806   1.085       .  S
C2807      C2808   1.400       .  A
C2807      C2812   1.401       .  A
C2808      C2809   1.394       .  A
C2808      H2821   1.083       .  S
C2809      C2810   1.414       .  A
C2809      H2822   1.077       .  S
C2810      C2816   1.430       .  A
C2810      C2811   1.423       .  A
C2811      C2813   1.400       .  A
C2811      C2812   1.408       .  A
C2812      H2823   1.084       .  S
C2813      C2814   1.391       .  A
C2813      H2824   1.084       .  S
C2814      C2815   1.400       .  A
C2814      H2825   1.084       .  S
C2815      C2816   1.423       .  A
C2815      C2820   1.406       .  A
C2816      C2817   1.415       .  A
C2817      C2818   1.395       .  A
C2817      H2826   1.077       .  S
C2818      C2819   1.400       .  A
C2818      H2827   1.083       .  S
C2819      C2820   1.401       .  A
C2820      H2828   1.084       .  S
C2829      C2830   1.401       .  A
C2829      C2834   1.401       .  A
C2830      C2831   1.397       .  A
C2830      H2843   1.083       .  S
C2831      C2832   1.414       .  A
C2831      H2844   1.078       .  S
C2832      C2838   1.432       .  A
C2832      C2833   1.424       .  A
C2833      C2835   1.399       .  A
C2833      C2834   1.406       .  A
C2834      H2845   1.085       .  S
C2835      C2836   1.389       .  A
C2835      H2846   1.084       .  S
C2836      C2837   1.399       .  A
C2836      H2847   1.084       .  S
C2837      C2838   1.422       .  A
C2837      C2842   1.403       .  A
C2838      C2839   1.417       .  A
C2839      C2840   1.400       .  A
C2839      H2848   1.078       .  S
C2840      C2841   1.400       .  A
C2840      H2849   1.083       .  S
C2841      C2842   1.401       .  A
C2842      H2850   1.085       .  S
C2851      C2852   1.401       .  A
C2851      C2856   1.400       .  A
C2852      C2853   1.401       .  A
C2852      H2865   1.083       .  S
C2853      C2854   1.417   1_545  A
C2853      H2866   1.078   1_545  S
C2854      C2855   1.423   1_565  A
C2855      C2857   1.398       .  A
C2855      C2856   1.402       .  A
C2856      H2867   1.085       .  S
C2857      H2868   1.084       .  S
C2858      C2859   1.398       .  A
C2858      H2869   1.084       .  S
C2859      C2860   1.423       .  A
C2859      C2864   1.403       .  A
C2860      C2861   1.417       .  A
C2861      C2862   1.402       .  A
C2861      H2870   1.078       .  S
C2862      C2863   1.401       .  A
C2862      H2871   1.083       .  S
C2863      C2864   1.400       .  A
C2864      H2872   1.085       .  S
C2873      C2874   1.399       .  A
C2873      C2878   1.403       .  A
C2874      C2875   1.396       .  A
C2874      H2887   1.084       .  S
C2875      C2876   1.415       .  A
C2875      H2888   1.074       .  S
C2876      C2882   1.431   1_545  A
C2876      C2877   1.422       .  A
C2877      C2879   1.401       .  A
C2877      C2878   1.409       .  A
C2878      H2889   1.084       .  S
C2879      C2880   1.393   1_545  A
C2879      H2890   1.084       .  S
C2880      C2881   1.401       .  A
C2880      H2891   1.084       .  S
C2881      C2882   1.423       .  A
C2881      C2886   1.411       .  A
C2882      C2883   1.414       .  A
C2883      C2884   1.394       .  A
C2883      H2892   1.074       .  S
C2884      C2885   1.400       .  A
C2884      H2893   1.084       .  S
C2885      C2886   1.404       .  A
C2886      H2894   1.084       .  S
C2895      C2896   1.399       .  A
C2895      C2900   1.401       .  A
C2896      C2897   1.394       .  A
C2896      H2909   1.083       .  S
C2897      C2898   1.414       .  A
C2897      H2910   1.076       .  S
C2898      C2904   1.429       .  A
C2898      C2899   1.423       .  A
C2899      C2901   1.400       .  A
C2899      C2900   1.407       .  A
C2900      H2911   1.084       .  S
C2901      C2902   1.391       .  A
C2901      H2912   1.084       .  S
C2902      C2903   1.400       .  A
C2902      H2913   1.084       .  S
C2903      C2904   1.422       .  A
C2903      C2908   1.406       .  A
C2904      C2905   1.415       .  A
C2905      C2906   1.395       .  A
C2905      H2914   1.076       .  S
C2906      C2907   1.399       .  A
C2906      H2915   1.083       .  S
C2907      C2908   1.401       .  A
C2908      H2916   1.084       .  S
C2917      C2918   1.400       .  A
C2917      C2922   1.403       .  A
C2918      C2919   1.398       .  A
C2918      H2931   1.083       .  S
C2919      C2920   1.416       .  A
C2919      H2932   1.077       .  S
C2920      C2926   1.432       .  A
C2920      C2921   1.422       .  A
C2921      C2923   1.400       .  A
C2921      C2922   1.407       .  A
C2922      H2933   1.084       .  S
C2923      C2924   1.391       .  A
C2923      H2934   1.084       .  S
C2924      C2925   1.400       .  A
C2924      H2935   1.084       .  S
C2925      C2926   1.423       .  A
C2925      C2930   1.408       .  A
C2926      C2927   1.415       .  A
C2927      C2928   1.398       .  A
C2927      H2936   1.077       .  S
C2928      C2929   1.400       .  A
C2928      H2937   1.083       .  S
C2929      C2930   1.402       .  A
C2930      H2938   1.084       .  S
C2939      C2940   1.402       .  A
C2939      C2944   1.400       .  A
C2940      C2941   1.399       .  A
C2940      H2953   1.083       .  S
C2941      C2942   1.416       .  A
C2941      H2954   1.078       .  S
C2942      C2948   1.433       .  A
C2942      C2943   1.423       .  A
C2943      C2945   1.399       .  A
C2943      C2944   1.406       .  A
C2944      H2955   1.084       .  S
C2945      C2946   1.389       .  A
C2945      H2956   1.084       .  S
C2946      C2947   1.399       .  A
C2946      H2957   1.084       .  S
C2947      C2948   1.423       .  A
C2947      C2952   1.406       .  A
C2948      C2949   1.416       .  A
C2949      C2950   1.400       .  A
C2949      H2958   1.077       .  S
C2950      C2951   1.401       .  A
C2950      H2959   1.083       .  S
C2951      C2952   1.401       .  A
C2952      H2960   1.084       .  S
C2961      C2962   1.398       .  A
C2961      C2966   1.403       .  A
C2962      C2963   1.393       .  A
C2962      H2975   1.083       .  S
C2963      C2964   1.414       .  A
C2963      H2976   1.075       .  S
C2964      C2970   1.428       .  A
C2964      C2965   1.422       .  A
C2965      C2967   1.400       .  A
C2965      C2966   1.408       .  A
C2966      H2977   1.084       .  S
C2967      C2968   1.392       .  A
C2967      H2978   1.084       .  S
C2968      C2969   1.400       .  A
C2968      H2979   1.084       .  S
C2969      C2970   1.422       .  A
C2969      C2974   1.407       .  A
C2970      C2971   1.415       .  A
C2971      C2972   1.393       .  A
C2971      H2980   1.075       .  S
C2972      C2973   1.398       .  A
C2972      H2981   1.084       .  S
C2973      C2974   1.402       .  A
C2974      H2982   1.084       .  S
C2983      C2984   1.400       .  A
C2983      C2988   1.401       .  A
C2984      C2985   1.399       .  A
C2984      H2997   1.083       .  S
C2985      C2986   1.417       .  A
C2985      H2998   1.078       .  S
C2986      C2992   1.432       .  A
C2986      C2987   1.422       .  A
C2987      C2989   1.399       .  A
C2987      C2988   1.404       .  A
C2988      H2999   1.085       .  S
C2989      C2990   1.389       .  A
C2989      H3000   1.084       .  S
C2990      C2991   1.399       .  A
C2990      H3001   1.084       .  S
C2991      C2992   1.423       .  A
C2991      C2996   1.407       .  A
C2992      C2993   1.414       .  A
C2993      C2994   1.398       .  A
C2993      H3002   1.078       .  S
C2994      C2995   1.401       .  A
C2994      H3003   1.083       .  S
C2995      C2996   1.402       .  A
C2996      H3004   1.084       .  S
C3005      C3006   1.399       .  A
C3005      C3010   1.401       .  A
C3006      C3007   1.396       .  A
C3006      H3019   1.083       .  S
C3007      C3008   1.415       .  A
C3007      H3020   1.077       .  S
C3008      C3014   1.430       .  A
C3008      C3009   1.423       .  A
C3009      C3011   1.399       .  A
C3009      C3010   1.404       .  A
C3010      H3021   1.085       .  S
C3011      C3012   1.389       .  A
C3011      H3022   1.084       .  S
C3012      C3013   1.399       .  A
C3012      H3023   1.084       .  S
C3013      C3014   1.423       .  A
C3013      C3018   1.405       .  A
C3014      C3015   1.415       .  A
C3015      C3016   1.397       .  A
C3015      H3024   1.077       .  S
C3016      C3017   1.400       .  A
C3016      H3025   1.083       .  S
C3017      C3018   1.400       .  A
C3018      H3026   1.085       .  S
C3027      C3028   1.400       .  A
C3027      C3032   1.400       .  A
C3028      C3029   1.400       .  A
C3028      H3041   1.083       .  S
C3029      C3030   1.416   1_556  A
C3030      C3031   1.423   1_554  A
C3031      C3033   1.398   1_556  A
C3031      C3032   1.402       .  A
C3032      H3043   1.085       .  S
C3033      C3034   1.387       .  A
C3033      H3044   1.084   1_554  S
C3034      H3045   1.084       .  S
C3035      C3036   1.423       .  A
C3035      C3040   1.402       .  A
C3036      C3037   1.416       .  A
C3037      C3038   1.398       .  A
C3037      H3046   1.078       .  S
C3038      C3039   1.400       .  A
C3038      H3047   1.083       .  S
C3039      C3040   1.400       .  A
C3040      H3048   1.085       .  S
C3049      C3050   1.401       .  A
C3049      C3054   1.400       .  A
C3050      C3051   1.401       .  A
C3050      H3063   1.083       .  S
C3051      C3052   1.417       .  A
C3051      H3064   1.077       .  S
C3052      C3058   1.433       .  A
C3052      C3053   1.423       .  A
C3053      C3055   1.399       .  A
C3053      C3054   1.404       .  A
C3054      H3065   1.084       .  S
C3055      C3056   1.388       .  A
C3055      H3066   1.084       .  S
C3056      C3057   1.399       .  A
C3056      H3067   1.084       .  S
C3057      C3058   1.423       .  A
C3057      C3062   1.405       .  A
C3058      C3059   1.416       .  A
C3059      C3060   1.400       .  A
C3059      H3068   1.077       .  S
C3060      C3061   1.401       .  A
C3060      H3069   1.083       .  S
C3061      C3062   1.400       .  A
C3062      H3070   1.084       .  S
C3071      C3072   1.400       .  A
C3071      C3076   1.401       .  A
C3072      C3073   1.395       .  A
C3072      H3085   1.083       .  S
C3073      C3074   1.414       .  A
C3073      H3086   1.077       .  S
C3074      C3080   1.430       .  A
C3074      C3075   1.423       .  A
C3075      C3077   1.400       .  A
C3075      C3076   1.407       .  A
C3076      H3087   1.084       .  S
C3077      C3078   1.391       .  A
C3077      H3088   1.084       .  S
C3078      C3079   1.400       .  A
C3078      H3089   1.084       .  S
C3079      C3080   1.422       .  A
C3079      C3084   1.406       .  A
C3080      C3081   1.415       .  A
C3081      C3082   1.396       .  A
C3081      H3090   1.077       .  S
C3082      C3083   1.399       .  A
C3082      H3091   1.083       .  S
C3083      C3084   1.402       .  A
C3084      H3092   1.085       .  S
C3093      C3094   1.402       .  A
C3093      C3098   1.399       .  A
C3094      C3095   1.404       .  A
C3094      H3107   1.083       .  S
C3095      C3096   1.418       .  A
C3095      H3108   1.078       .  S
C3096      C3102   1.435       .  A
C3096      C3097   1.423       .  A
C3097      C3099   1.398       .  A
C3097      C3098   1.403       .  A
C3098      H3109   1.085       .  S
C3099      C3100   1.386       .  A
C3099      H3110   1.084       .  S
C3100      C3101   1.398       .  A
C3100      H3111   1.084       .  S
C3101      C3102   1.423       .  A
C3101      C3106   1.402       .  A
C3102      C3103   1.418       .  A
C3103      C3104   1.404       .  A
C3103      H3112   1.078       .  S
C3104      C3105   1.402       .  A
C3104      H3113   1.083       .  S
C3105      C3106   1.400       .  A
C3106      H3114   1.085       .  S
C3115      C3116   1.401       .  A
C3115      C3120   1.402       .  A
C3116      C3117   1.398       .  A
C3116      H3129   1.083       .  S
C3117      C3118   1.415       .  A
C3117      H3130   1.077       .  S
C3118      C3124   1.433       .  A
C3118      C3119   1.423       .  A
C3119      C3121   1.400       .  A
C3119      C3120   1.407       .  A
C3120      H3131   1.084       .  S
C3121      C3122   1.391       .  A
C3121      H3132   1.084       .  S
C3122      C3123   1.400       .  A
C3122      H3133   1.084       .  S
C3123      C3124   1.422       .  A
C3123      C3128   1.407       .  A
C3124      C3125   1.416       .  A
C3125      C3126   1.399       .  A
C3125      H3134   1.077       .  S
C3126      C3127   1.400       .  A
C3126      H3135   1.083       .  S
C3127      C3128   1.403       .  A
C3128      H3136   1.084       .  S
C3137      C3138   1.399       .  A
C3137      C3142   1.401       .  A
C3138      C3139   1.393       .  A
C3138      H3151   1.084       .  S
C3139      C3140   1.413       .  A
C3139      H3152   1.076       .  S
C3140      C3146   1.428       .  A
C3140      C3141   1.423       .  A
C3141      C3143   1.400       .  A
C3141      C3142   1.407       .  A
C3142      H3153   1.084       .  S
C3143      C3144   1.391       .  A
C3143      H3154   1.084       .  S
C3144      C3145   1.400       .  A
C3144      H3155   1.084       .  S
C3145      C3146   1.422       .  A
C3145      C3150   1.405       .  A
C3146      C3147   1.415       .  A
C3147      C3148   1.394       .  A
C3147      H3156   1.076       .  S
C3148      C3149   1.399       .  A
C3148      H3157   1.084       .  S
C3149      C3150   1.401       .  A
C3150      H3158   1.084       .  S
C3159      C3160   1.400       .  A
C3159      C3164   1.400       .  A
C3160      C3161   1.396       .  A
C3160      H3173   1.083       .  S
C3161      C3162   1.414       .  A
C3161      H3174   1.077       .  S
C3162      C3168   1.430       .  A
C3162      C3163   1.424       .  A
C3163      C3165   1.399       .  A
C3163      C3164   1.405       .  A
C3164      H3175   1.085       .  S
C3165      C3166   1.389       .  A
C3165      H3176   1.084       .  S
C3166      C3167   1.399       .  A
C3166      H3177   1.084       .  S
C3167      C3168   1.422       .  A
C3167      C3172   1.404       .  A
C3168      C3169   1.416       .  A
C3169      C3170   1.398       .  A
C3169      H3178   1.078       .  S
C3170      C3171   1.400       .  A
C3170      H3179   1.083       .  S
C3171      C3172   1.401       .  A
C3172      H3180   1.085       .  S
C3181      C3182   1.400       .  A
C3181      C3186   1.401       .  A
C3182      C3183   1.394       .  A
C3182      H3195   1.083       .  S
C3183      C3184   1.413       .  A
C3183      H3196   1.077       .  S
C3184      C3190   1.430       .  A
C3184      C3185   1.424       .  A
C3185      C3187   1.400       .  A
C3185      C3186   1.408       .  A
C3186      H3197   1.084       .  S
C3187      C3188   1.391       .  A
C3187      H3198   1.084       .  S
C3188      C3189   1.400       .  A
C3188      H3199   1.084       .  S
C3189      C3190   1.421       .  A
C3189      C3194   1.405       .  A
C3190      C3191   1.417       .  A
C3191      C3192   1.397       .  A
C3191      H3200   1.077       .  S
C3192      C3193   1.398       .  A
C3192      H3201   1.083       .  S
C3193      C3194   1.402       .  A
C3194      H3202   1.085       .  S
C3203      C3204   1.399       .  A
C3203      C3208   1.402       .  A
C3204      C3205   1.394       .  A
C3204      H3217   1.083       .  S
C3205      C3206   1.415       .  A
C3205      H3218   1.076       .  S
C3206      C3212   1.430       .  A
C3206      C3207   1.423       .  A
C3207      C3209   1.400   1_556  A
C3207      C3208   1.407       .  A
C3208      H3219   1.084       .  S
C3209      C3210   1.391       .  A
C3209      H3220   1.084       .  S
C3210      C3211   1.400   1_554  A
C3210      H3221   1.084       .  S
C3211      C3212   1.422       .  A
C3211      C3216   1.407       .  A
C3212      C3213   1.415       .  A
C3213      C3214   1.395       .  A
C3213      H3222   1.076       .  S
C3214      C3215   1.399       .  A
C3214      H3223   1.083       .  S
C3215      C3216   1.402       .  A
C3216      H3224   1.084       .  S
C3225      C3226   1.400       .  A
C3225      C3230   1.400       .  A
C3226      C3227   1.399       .  A
C3226      H3239   1.083       .  S
C3227      C3228   1.416       .  A
C3227      H3240   1.077       .  S
C3228      C3234   1.431       .  A
C3228      C3229   1.422       .  A
C3229      C3231   1.399       .  A
C3229      C3230   1.403       .  A
C3230      H3241   1.085       .  S
C3231      C3232   1.388       .  A
C3231      H3242   1.084       .  S
C3232      C3233   1.399       .  A
C3232      H3243   1.084       .  S
C3233      C3234   1.423       .  A
C3233      C3238   1.404       .  A
C3234      C3235   1.415       .  A
C3235      C3236   1.398       .  A
C3235      H3244   1.077       .  S
C3236      C3237   1.400       .  A
C3236      H3245   1.083       .  S
C3237      C3238   1.400       .  A
C3238      H3246   1.085       .  S
C3247      C3248   1.399       .  A
C3247      C3252   1.401       .  A
C3248      C3249   1.397       .  A
C3248      H3261   1.083       .  S
C3249      C3250   1.416       .  A
C3249      H3262   1.077       .  S
C3250      C3256   1.430       .  A
C3250      C3251   1.422       .  A
C3251      C3253   1.399       .  A
C3251      C3252   1.404       .  A
C3252      H3263   1.084       .  S
C3253      C3254   1.389       .  A
C3253      H3264   1.084       .  S
C3254      C3255   1.399       .  A
C3254      H3265   1.084       .  S
C3255      C3256   1.423       .  A
C3255      C3260   1.405       .  A
C3256      C3257   1.415       .  A
C3257      C3258   1.396       .  A
C3257      H3266   1.077       .  S
C3258      C3259   1.400       .  A
C3258      H3267   1.083       .  S
C3259      C3260   1.400       .  A
C3260      H3268   1.084       .  S
C3269      C3270   1.398       .  A
C3269      C3274   1.401       .  A
C3270      C3271   1.397       .  A
C3270      H3283   1.083       .  S
C3271      C3272   1.415       .  A
C3272      C3273   1.423       .  A
C3273      C3275   1.399       .  A
C3273      C3274   1.403       .  A
C3274      H3285   1.085       .  S
C3275      C3276   1.388       .  A
C3275      H3286   1.084       .  S
C3276      H3287   1.084       .  S
C3277      C3278   1.422       .  A
C3277      C3282   1.401       .  A
C3278      C3279   1.416       .  A
C3279      C3280   1.398       .  A
C3279      H3288   1.077       .  S
C3280      C3281   1.399       .  A
C3280      H3289   1.083       .  S
C3281      C3282   1.400       .  A
C3282      H3290   1.085       .  S
C3291      C3292   1.399       .  A
C3291      C3296   1.398       .  A
C3292      C3293   1.397       .  A
C3292      H3305   1.083       .  S
C3293      C3294   1.416       .  A
C3293      H3306   1.077       .  S
C3294      C3300   1.430       .  A
C3294      C3295   1.423       .  A
C3295      C3297   1.398       .  A
C3295      C3296   1.402       .  A
C3296      H3307   1.085       .  S
C3297      C3298   1.387       .  A
C3297      H3308   1.084       .  S
C3298      C3299   1.399       .  A
C3298      H3309   1.084       .  S
C3299      C3300   1.423       .  A
C3299      C3304   1.403       .  A
C3300      C3301   1.416       .  A
C3301      C3302   1.398       .  A
C3301      H3310   1.077       .  S
C3302      C3303   1.400       .  A
C3302      H3311   1.083       .  S
C3303      C3304   1.400       .  A
C3304      H3312   1.084       .  S
C3313      C3314   1.400       .  A
C3313      C3318   1.399       .  A
C3314      C3315   1.401       .  A
C3314      H3327   1.083       .  S
C3315      C3316   1.419       .  A
C3315      H3328   1.077       .  S
C3316      C3322   1.430       .  A
C3316      C3317   1.420       .  A
C3317      C3319   1.398       .  A
C3317      C3318   1.397       .  A
C3318      H3329   1.084       .  S
C3319      C3320   1.386       .  A
C3319      H3330   1.084       .  S
C3320      C3321   1.398       .  A
C3320      H3331   1.084       .  S
C3321      C3322   1.424       .  A
C3321      C3326   1.403       .  A
C3322      C3323   1.414       .  A
C3323      C3324   1.397       .  A
C3323      H3332   1.077       .  S
C3324      C3325   1.400       .  A
C3324      H3333   1.083       .  S
C3325      C3326   1.399       .  A
C3326      H3334   1.084       .  S
C3335      C3336   1.400       .  A
C3335      C3340   1.402       .  A
C3336      C3337   1.396       .  A
C3336      H3349   1.083       .  S
C3337      C3338   1.415       .  A
C3337      H3350   1.077       .  S
C3338      C3344   1.431       .  A
C3338      C3339   1.423       .  A
C3339      C3341   1.400       .  A
C3339      C3340   1.408       .  A
C3340      H3351   1.084       .  S
C3341      C3342   1.391       .  A
C3341      H3352   1.084       .  S
C3342      C3343   1.400       .  A
C3342      H3353   1.084       .  S
C3343      C3344   1.423       .  A
C3343      C3348   1.408       .  A
C3344      C3345   1.415       .  A
C3345      C3346   1.396       .  A
C3345      H3354   1.077       .  S
C3346      C3347   1.399       .  A
C3346      H3355   1.083       .  S
C3347      C3348   1.403       .  A
C3348      H3356   1.084       .  S
C3357      C3358   1.399       .  A
C3357      C3362   1.400       .  A
C3358      C3359   1.396       .  A
C3358      H3371   1.083       .  S
C3359      C3360   1.415       .  A
C3359      H3372   1.076       .  S
C3360      C3366   1.429       .  A
C3360      C3361   1.423       .  A
C3361      C3363   1.399       .  A
C3361      C3362   1.405       .  A
C3362      H3373   1.084       .  S
C3363      C3364   1.390       .  A
C3363      H3374   1.084       .  S
C3364      C3365   1.400       .  A
C3364      H3375   1.084       .  S
C3365      C3366   1.422       .  A
C3365      C3370   1.405       .  A
C3366      C3367   1.415       .  A
C3367      C3368   1.396       .  A
C3367      H3376   1.076       .  S
C3368      C3369   1.399       .  A
C3368      H3377   1.083       .  S
C3369      C3370   1.402       .  A
C3370      H3378   1.084       .  S
C3379      C3380   1.400       .  A
C3379      C3384   1.400       .  A
C3380      C3381   1.399       .  A
C3380      H3393   1.083       .  S
C3381      C3382   1.416       .  A
C3381      H3394   1.077       .  S
C3382      C3388   1.432       .  A
C3382      C3383   1.423       .  A
C3383      C3385   1.399       .  A
C3383      C3384   1.404       .  A
C3384      H3395   1.084       .  S
C3385      C3386   1.389       .  A
C3385      H3396   1.084       .  S
C3386      C3387   1.399       .  A
C3386      H3397   1.084       .  S
C3387      C3388   1.423       .  A
C3387      C3392   1.406       .  A
C3388      C3389   1.416       .  A
C3389      C3390   1.399       .  A
C3389      H3398   1.077       .  S
C3390      C3391   1.400       .  A
C3390      H3399   1.083       .  S
C3391      C3392   1.402       .  A
C3392      H3400   1.084       .  S
C3401      C3402   1.398       .  A
C3401      C3406   1.402       .  A
C3402      C3403   1.395       .  A
C3402      H3415   1.083       .  S
C3403      C3404   1.415       .  A
C3403      H3416   1.078       .  S
C3404      C3410   1.428       .  A
C3404      C3405   1.422       .  A
C3405      C3407   1.400       .  A
C3405      C3406   1.405       .  A
C3406      H3417   1.085       .  S
C3407      C3408   1.391       .  A
C3407      H3418   1.084       .  S
C3408      C3409   1.400       .  A
C3408      H3419   1.084       .  S
C3409      C3410   1.423       .  A
C3409      C3414   1.406       .  A
C3410      C3411   1.413       .  A
C3411      C3412   1.393       .  A
C3411      H3420   1.078       .  S
C3412      C3413   1.399       .  A
C3412      H3421   1.083       .  S
C3413      C3414   1.401       .  A
C3414      H3422   1.085       .  S
C3423      C3424   1.400       .  A
C3423      C3428   1.400       .  A
C3424      C3425   1.401       .  A
C3424      H3437   1.083       .  S
C3425      C3426   1.418       .  A
C3425      H3438   1.078       .  S
C3426      C3432   1.430       .  A
C3426      C3427   1.421       .  A
C3427      C3429   1.399       .  A
C3427      C3428   1.400       .  A
C3428      H3439   1.085       .  S
C3429      C3430   1.387       .  A
C3429      H3440   1.084       .  S
C3430      C3431   1.398       .  A
C3430      H3441   1.084       .  S
C3431      C3432   1.423       .  A
C3431      C3436   1.402       .  A
C3432      C3433   1.415       .  A
C3433      C3434   1.398       .  A
C3433      H3442   1.078       .  S
C3434      C3435   1.400       .  A
C3434      H3443   1.083       .  S
C3435      C3436   1.398       .  A
C3436      H3444   1.085       .  S
C3445      C3446   1.398       .  A
C3445      C3450   1.401       .  A
C3446      C3447   1.394       .  A
C3446      H3459   1.084       .  S
C3447      C3448   1.416       .  A
C3447      H3460   1.074       .  S
C3448      C3454   1.428       .  A
C3448      C3449   1.421       .  A
C3449      C3451   1.400       .  A
C3449      C3450   1.404       .  A
C3450      H3461   1.084       .  S
C3451      C3452   1.391       .  A
C3451      H3462   1.084       .  S
C3452      C3453   1.400       .  A
C3452      H3463   1.084       .  S
C3453      C3454   1.423       .  A
C3453      C3458   1.408       .  A
C3454      C3455   1.413       .  A
C3455      C3456   1.392       .  A
C3455      H3464   1.074       .  S
C3456      C3457   1.398       .  A
C3457      C3458   1.402       .  A
C3458      H3466   1.084       .  S
C3467      C3468   1.399       .  A
C3467      C3472   1.401       .  A
C3468      C3469   1.398       .  A
C3468      H3481   1.083       .  S
C3469      C3470   1.416       .  A
C3469      H3482   1.078       .  S
C3470      C3476   1.430       .  A
C3470      C3471   1.422       .  A
C3471      C3473   1.399       .  A
C3471      C3472   1.403       .  A
C3472      H3483   1.085       .  S
C3473      C3474   1.389       .  A
C3473      H3484   1.084       .  S
C3474      C3475   1.399       .  A
C3474      H3485   1.084       .  S
C3475      C3476   1.423       .  A
C3475      C3480   1.405       .  A
C3476      C3477   1.414       .  A
C3477      C3478   1.397       .  A
C3477      H3486   1.078       .  S
C3478      C3479   1.401       .  A
C3478      H3487   1.083       .  S
C3479      C3480   1.401       .  A
C3480      H3488   1.084       .  S
C3489      C3490   1.401       .  A
C3489      C3494   1.402       .  A
C3490      C3491   1.398       .  A
C3490      H3503   1.083       .  S
C3491      C3492   1.415       .  A
C3491      H3504   1.077       .  S
C3492      C3498   1.433   1_655  A
C3492      C3493   1.424       .  A
C3493      C3495   1.400       .  A
C3493      C3494   1.408       .  A
C3494      H3505   1.084       .  S
C3495      C3496   1.391   1_655  A
C3495      H3506   1.084       .  S
C3496      C3497   1.400       .  A
C3496      H3507   1.084       .  S
C3497      C3498   1.422       .  A
C3497      C3502   1.407       .  A
C3498      C3499   1.417       .  A
C3499      C3500   1.399       .  A
C3499      H3508   1.077   1_455  S
C3500      C3501   1.400       .  A
C3500      H3509   1.083       .  S
C3501      C3502   1.403       .  A
C3502      H3510   1.084       .  S
C3511      C3512   1.401       .  A
C3511      C3516   1.399       .  A
C3512      C3513   1.399       .  A
C3512      H3525   1.083       .  S
C3513      C3514   1.416       .  A
C3513      H3526   1.077       .  S
C3514      C3520   1.432       .  A
C3514      C3515   1.423       .  A
C3515      C3517   1.398       .  A
C3515      C3516   1.403       .  A
C3516      H3527   1.084       .  S
C3517      C3518   1.388       .  A
C3517      H3528   1.084       .  S
C3518      C3519   1.399       .  A
C3518      H3529   1.084       .  S
C3519      C3520   1.423       .  A
C3519      C3524   1.404       .  A
C3520      C3521   1.416       .  A
C3521      C3522   1.399       .  A
C3521      H3530   1.077       .  S
C3522      C3523   1.401       .  A
C3522      H3531   1.083       .  S
C3523      C3524   1.400       .  A
C3524      H3532   1.084       .  S
C3533      C3534   1.400       .  A
C3533      C3538   1.401       .  A
C3534      C3535   1.397       .  A
C3534      H3547   1.083       .  S
C3535      C3536   1.415       .  A
C3535      H3548   1.078       .  S
C3536      C3542   1.429       .  A
C3536      C3537   1.422       .  A
C3537      C3539   1.400   1_556  A
C3537      C3538   1.405       .  A
C3538      H3549   1.084   1_556  S
C3539      C3540   1.390       .  A
C3539      H3550   1.084       .  S
C3540      C3541   1.399   1_554  A
C3540      H3551   1.084       .  S
C3541      C3542   1.422       .  A
C3541      C3546   1.404       .  A
C3542      C3543   1.415       .  A
C3543      C3544   1.397       .  A
C3543      H3552   1.078       .  S
C3544      C3545   1.399       .  A
C3544      H3553   1.083       .  S
C3545      C3546   1.401       .  A
C3546      H3554   1.085       .  S
C3555      C3556   1.401       .  A
C3555      C3560   1.402       .  A
C3556      C3557   1.400       .  A
C3556      H3569   1.083       .  S
C3557      C3558   1.416       .  A
C3557      H3570   1.077       .  S
C3558      C3564   1.434       .  A
C3558      C3559   1.423       .  A
C3559      C3561   1.399       .  A
C3559      C3560   1.406       .  A
C3560      H3571   1.084       .  S
C3561      C3562   1.390       .  A
C3561      H3572   1.084       .  S
C3562      C3563   1.399       .  A
C3562      H3573   1.084       .  S
C3563      C3564   1.423       .  A
C3563      C3568   1.407       .  A
C3564      C3565   1.416       .  A
C3565      C3566   1.400       .  A
C3565      H3574   1.077       .  S
C3566      C3567   1.401       .  A
C3566      H3575   1.083       .  S
C3567      C3568   1.402       .  A
C3568      H3576   1.084       .  S
C3577      C3578   1.400       .  A
C3577      C3582   1.399       .  A
C3578      C3579   1.399       .  A
C3578      H3591   1.083       .  S
C3579      C3580   1.417       .  A
C3579      H3592   1.078       .  S
C3580      C3586   1.430       .  A
C3580      C3581   1.422       .  A
C3581      C3583   1.398       .  A
C3581      C3582   1.400       .  A
C3582      H3593   1.085       .  S
C3583      C3584   1.387       .  A
C3583      H3594   1.084       .  S
C3584      C3585   1.398       .  A
C3584      H3595   1.084       .  S
C3585      C3586   1.423       .  A
C3585      C3590   1.402       .  A
C3586      C3587   1.416       .  A
C3587      C3588   1.398       .  A
C3587      H3596   1.078       .  S
C3588      C3589   1.400       .  A
C3588      H3597   1.083       .  S
C3589      C3590   1.400       .  A
C3590      H3598   1.085       .  S
C3599      C3600   1.399       .  A
C3599      C3604   1.403       .  A
C3600      C3601   1.395       .  A
C3600      H3613   1.083       .  S
C3601      C3602   1.414       .  A
C3601      H3614   1.077       .  S
C3602      C3608   1.431       .  A
C3602      C3603   1.423       .  A
C3603      C3605   1.400       .  A
C3603      C3604   1.408       .  A
C3604      H3615   1.084       .  S
C3605      C3606   1.391       .  A
C3605      H3616   1.084       .  S
C3606      C3607   1.400       .  A
C3606      H3617   1.084       .  S
C3607      C3608   1.423       .  A
C3607      C3612   1.406       .  A
C3608      C3609   1.415       .  A
C3609      C3610   1.396       .  A
C3609      H3618   1.077       .  S
C3610      C3611   1.400       .  A
C3610      H3619   1.083       .  S
C3611      C3612   1.401       .  A
C3612      H3620   1.084       .  S
C3621      C3622   1.400       .  A
C3621      C3626   1.401       .  A
C3622      C3623   1.397       .  A
C3622      H3635   1.083       .  S
C3623      C3624   1.415       .  A
C3623      H3636   1.077       .  S
C3624      C3630   1.431       .  A
C3624      C3625   1.423       .  A
C3625      C3627   1.399       .  A
C3625      C3626   1.404       .  A
C3626      H3637   1.085       .  S
C3627      C3628   1.389       .  A
C3627      H3638   1.084       .  S
C3628      C3629   1.399       .  A
C3628      H3639   1.084       .  S
C3629      C3630   1.423       .  A
C3629      C3634   1.404       .  A
C3630      C3631   1.415       .  A
C3631      C3632   1.397       .  A
C3631      H3640   1.077       .  S
C3632      C3633   1.400       .  A
C3632      H3641   1.083       .  S
C3633      C3634   1.401       .  A
C3634      H3642   1.085       .  S
C3643      C3644   1.401       .  A
C3643      C3648   1.400       .  A
C3644      C3645   1.400       .  A
C3644      H3657   1.083       .  S
C3645      C3646   1.416       .  A
C3646      C3647   1.423       .  A
C3647      C3649   1.398   1_455  A
C3647      C3648   1.403       .  A
C3648      H3659   1.085       .  S
C3649      C3650   1.387       .  A
C3649      H3660   1.084       .  S
C3650      H3661   1.084       .  S
C3651      C3652   1.422       .  A
C3651      C3656   1.402       .  A
C3652      C3653   1.417       .  A
C3653      C3654   1.401       .  A
C3653      H3662   1.078       .  S
C3654      C3655   1.400       .  A
C3654      H3663   1.083       .  S
C3655      C3656   1.399       .  A
C3656      H3664   1.085       .  S
C3665      C3666   1.401       .  A
C3665      C3670   1.401       .  A
C3666      C3667   1.400       .  A
C3666      H3679   1.083       .  S
C3667      C3668   1.416       .  A
C3667      H3680   1.077   1_655  S
C3668      C3674   1.433   1_655  A
C3668      C3669   1.423       .  A
C3669      C3671   1.399       .  A
C3669      C3670   1.405       .  A
C3670      H3681   1.084       .  S
C3671      C3672   1.389   1_655  A
C3671      H3682   1.084       .  S
C3672      C3673   1.399       .  A
C3672      H3683   1.084       .  S
C3673      C3674   1.423       .  A
C3673      C3678   1.405       .  A
C3674      C3675   1.416       .  A
C3675      C3676   1.399       .  A
C3675      H3684   1.077       .  S
C3676      C3677   1.401       .  A
C3676      H3685   1.083       .  S
C3677      C3678   1.400       .  A
C3678      H3686   1.084       .  S
C3687      C3688   1.401       .  A
C3687      C3692   1.399       .  A
C3688      C3689   1.398       .  A
C3688      H3701   1.083       .  S
C3689      C3690   1.415       .  A
C3689      H3702   1.077       .  S
C3690      C3696   1.430       .  A
C3690      C3691   1.423       .  A
C3691      C3693   1.398       .  A
C3691      C3692   1.402       .  A
C3692      H3703   1.085       .  S
C3693      C3694   1.387       .  A
C3693      H3704   1.084       .  S
C3694      C3695   1.398       .  A
C3694      H3705   1.084       .  S
C3695      C3696   1.422       .  A
C3695      C3700   1.400       .  A
C3696      C3697   1.416       .  A
C3697      C3698   1.398       .  A
C3697      H3706   1.077       .  S
C3698      C3699   1.400       .  A
C3698      H3707   1.083       .  S
C3699      C3700   1.399       .  A
C3700      H3708   1.085       .  S
C3709      C3710   1.399       .  A
C3709      C3714   1.404       .  A
C3710      C3711   1.390       .  A
C3710      H3723   1.083       .  S
C3711      C3712   1.413       .  A
C3711      H3724   1.077       .  S
C3712      C3718   1.428       .  A
C3712      C3713   1.423       .  A
C3713      C3715   1.401       .  A
C3713      C3714   1.411       .  A
C3714      H3725   1.084       .  S
C3715      C3716   1.394       .  A
C3715      H3726   1.084       .  S
C3716      C3717   1.401       .  A
C3716      H3727   1.084       .  S
C3717      C3718   1.423       .  A
C3717      C3722   1.410       .  A
C3718      C3719   1.413       .  A
C3719      C3720   1.389       .  A
C3719      H3728   1.077       .  S
C3720      C3721   1.398       .  A
C3720      H3729   1.084       .  S
C3721      C3722   1.403       .  A
C3722      H3730   1.084       .  S
C3731      C3732   1.400       .  A
C3731      C3736   1.401       .  A
C3732      C3733   1.399       .  A
C3732      H3745   1.083       .  S
C3733      C3734   1.416       .  A
C3733      H3746   1.077       .  S
C3734      C3740   1.432       .  A
C3734      C3735   1.423       .  A
C3735      C3737   1.399       .  A
C3735      C3736   1.405       .  A
C3736      H3747   1.084       .  S
C3737      C3738   1.389       .  A
C3737      H3748   1.084       .  S
C3738      C3739   1.399       .  A
C3738      H3749   1.084       .  S
C3739      C3740   1.423       .  A
C3739      C3744   1.405       .  A
C3740      C3741   1.416       .  A
C3741      C3742   1.399       .  A
C3741      H3750   1.077       .  S
C3742      C3743   1.401       .  A
C3742      H3751   1.083       .  S
C3743      C3744   1.401       .  A
C3744      H3752   1.084       .  S
C3753      C3754   1.399       .  A
C3753      C3758   1.401       .  A
C3754      C3755   1.394       .  A
C3754      H3767   1.083       .  S
C3755      C3756   1.414       .  A
C3755      H3768   1.077       .  S
C3756      C3762   1.429       .  A
C3756      C3757   1.423       .  A
C3757      C3759   1.400       .  A
C3757      C3758   1.407       .  A
C3758      H3769   1.084       .  S
C3759      C3760   1.391       .  A
C3759      H3770   1.084       .  S
C3760      C3761   1.400       .  A
C3760      H3771   1.084       .  S
C3761      C3762   1.422       .  A
C3761      C3766   1.405       .  A
C3762      C3763   1.415       .  A
C3763      C3764   1.395       .  A
C3763      H3772   1.077       .  S
C3764      C3765   1.398       .  A
C3764      H3773   1.083       .  S
C3765      C3766   1.401       .  A
C3766      H3774   1.085       .  S
C3775      C3776   1.400       .  A
C3775      C3780   1.401       .  A
C3776      C3777   1.398       .  A
C3776      H3789   1.083       .  S
C3777      C3778   1.416       .  A
C3777      H3790   1.077       .  S
C3778      C3784   1.432       .  A
C3778      C3779   1.423       .  A
C3779      C3781   1.399       .  A
C3779      C3780   1.405       .  A
C3780      H3791   1.085       .  S
C3781      C3782   1.389       .  A
C3781      H3792   1.084       .  S
C3782      C3783   1.399       .  A
C3782      H3793   1.084       .  S
C3783      C3784   1.423       .  A
C3783      C3788   1.406       .  A
C3784      C3785   1.415       .  A
C3785      C3786   1.398       .  A
C3785      H3794   1.077       .  S
C3786      C3787   1.401       .  A
C3786      H3795   1.083       .  S
C3787      C3788   1.402       .  A
C3788      H3796   1.084       .  S
C3797      C3798   1.401       .  A
C3797      C3802   1.402       .  A
C3798      C3799   1.400       .  A
C3798      H3811   1.083       .  S
C3799      C3800   1.417       .  A
C3799      H3812   1.077       .  S
C3800      C3806   1.434       .  A
C3800      C3801   1.422       .  A
C3801      C3803   1.399       .  A
C3801      C3802   1.406       .  A
C3802      H3813   1.084       .  S
C3803      C3804   1.390       .  A
C3803      H3814   1.084       .  S
C3804      C3805   1.399       .  A
C3804      H3815   1.084       .  S
C3805      C3806   1.423       .  A
C3805      C3810   1.408       .  A
C3806      C3807   1.415       .  A
C3807      C3808   1.399       .  A
C3807      H3816   1.077       .  S
C3808      C3809   1.401       .  A
C3808      H3817   1.083       .  S
C3809      C3810   1.402       .  A
C3810      H3818   1.084       .  S
C3819      C3820   1.400       .  A
C3819      C3824   1.402       .  A
C3820      C3821   1.396       .  A
C3820      H3833   1.083       .  S
C3821      C3822   1.414       .  A
C3821      H3834   1.077       .  S
C3822      C3828   1.430       .  A
C3822      C3823   1.423       .  A
C3823      C3825   1.400       .  A
C3823      C3824   1.407       .  A
C3824      H3835   1.084       .  S
C3825      C3826   1.391       .  A
C3825      H3836   1.084       .  S
C3826      C3827   1.399       .  A
C3826      H3837   1.084       .  S
C3827      C3828   1.422       .  A
C3827      C3832   1.406       .  A
C3828      C3829   1.415       .  A
C3829      C3830   1.397       .  A
C3829      H3838   1.077       .  S
C3830      C3831   1.399       .  A
C3830      H3839   1.084       .  S
C3831      C3832   1.400       .  A
C3832      H3840   1.085       .  S
C3841      C3842   1.400       .  A
C3841      C3846   1.405       .  A
C3842      C3843   1.397       .  A
C3842      H3855   1.083       .  S
C3843      C3844   1.415       .  A
C3843      H3856   1.077       .  S
C3844      C3850   1.433       .  A
C3844      C3845   1.423       .  A
C3845      C3847   1.401       .  A
C3845      C3846   1.411       .  A
C3846      H3857   1.084       .  S
C3847      C3848   1.393       .  A
C3847      H3858   1.084   1_556  S
C3848      C3849   1.401       .  A
C3848      H3859   1.084   1_556  S
C3849      C3850   1.423       .  A
C3849      C3854   1.409       .  A
C3850      C3851   1.415       .  A
C3851      C3852   1.397       .  A
C3851      H3860   1.077       .  S
C3852      C3853   1.399       .  A
C3852      H3861   1.083       .  S
C3853      C3854   1.404       .  A
C3854      H3862   1.084       .  S
C3863      C3864   1.401       .  A
C3863      C3868   1.399       .  A
C3864      C3865   1.400       .  A
C3864      H3877   1.083       .  S
C3865      C3866   1.416       .  A
C3865      H3878   1.077       .  S
C3866      C3872   1.432       .  A
C3866      C3867   1.423       .  A
C3867      C3869   1.398       .  A
C3867      C3868   1.403       .  A
C3868      H3879   1.084       .  S
C3869      C3870   1.387       .  A
C3869      H3880   1.084       .  S
C3870      C3871   1.398       .  A
C3870      H3881   1.084       .  S
C3871      C3872   1.423       .  A
C3871      C3876   1.402       .  A
C3872      C3873   1.416       .  A
C3873      C3874   1.399       .  A
C3873      H3882   1.077       .  S
C3874      C3875   1.400       .  A
C3874      H3883   1.083       .  S
C3875      C3876   1.399       .  A
C3876      H3884   1.085       .  S
C3885      C3886   1.401       .  A
C3885      C3890   1.399       .  A
C3886      C3887   1.403       .  A
C3886      H3899   1.083       .  S
C3887      C3888   1.418       .  A
C3887      H3900   1.078       .  S
C3888      C3889   1.422       .  A
C3889      C3891   1.398       .  A
C3889      C3890   1.401       .  A
C3890      H3901   1.085       .  S
C3891      H3902   1.084       .  S
C3892      C3893   1.399   1_655  A
C3892      H3903   1.084       .  S
C3893      C3894   1.423   1_455  A
C3893      C3898   1.404       .  A
C3894      C3895   1.416   1_655  A
C3895      C3896   1.399       .  A
C3895      H3904   1.077       .  S
C3896      C3897   1.400       .  A
C3896      H3905   1.083       .  S
C3897      C3898   1.401       .  A
C3898      H3906   1.085       .  S
C3907      C3908   1.400       .  A
C3907      C3912   1.401       .  A
C3908      C3909   1.397       .  A
C3908      H3921   1.084       .  S
C3909      C3910   1.415       .  A
C3909      H3922   1.075       .  S
C3910      C3916   1.431   1_655  A
C3910      C3911   1.422       .  A
C3911      C3913   1.400       .  A
C3911      C3912   1.407       .  A
C3912      H3923   1.084       .  S
C3913      C3914   1.391       .  A
C3913      H3924   1.084       .  S
C3914      C3915   1.400   1_655  A
C3914      H3925   1.084   1_655  S
C3915      C3916   1.423       .  A
C3915      C3920   1.408       .  A
C3916      C3917   1.414       .  A
C3917      C3918   1.395       .  A
C3917      H3926   1.075       .  S
C3918      C3919   1.400       .  A
C3918      H3927   1.084       .  S
C3919      C3920   1.402       .  A
C3920      H3928   1.084       .  S
C3929      C3930   1.399       .  A
C3929      C3934   1.399       .  A
C3930      C3931   1.396       .  A
C3930      H3943   1.083       .  S
C3931      C3932   1.415       .  A
C3931      H3944   1.077       .  S
C3932      C3938   1.429       .  A
C3932      C3933   1.423       .  A
C3933      C3935   1.399       .  A
C3933      C3934   1.403       .  A
C3934      H3945   1.085       .  S
C3935      C3936   1.388       .  A
C3935      H3946   1.084       .  S
C3936      C3937   1.399       .  A
C3936      H3947   1.084       .  S
C3937      C3938   1.423       .  A
C3937      C3942   1.403       .  A
C3938      C3939   1.416       .  A
C3939      C3940   1.396       .  A
C3939      H3948   1.077       .  S
C3940      C3941   1.399       .  A
C3940      H3949   1.083       .  S
C3941      C3942   1.400       .  A
C3942      H3950   1.085       .  S
C3951      C3952   1.400       .  A
C3951      C3956   1.403       .  A
C3952      C3953   1.397       .  A
C3952      H3965   1.083       .  S
C3953      C3954   1.415       .  A
C3953      H3966   1.077       .  S
C3954      C3960   1.431       .  A
C3954      C3955   1.422       .  A
C3955      C3957   1.401       .  A
C3955      C3956   1.408       .  A
C3956      H3967   1.084       .  S
C3957      C3958   1.392       .  A
C3957      H3968   1.084       .  S
C3958      C3959   1.400       .  A
C3958      H3969   1.084       .  S
C3959      C3960   1.423       .  A
C3959      C3964   1.408       .  A
C3960      C3961   1.414       .  A
C3961      C3962   1.396       .  A
C3961      H3970   1.077       .  S
C3962      C3963   1.400       .  A
C3962      H3971   1.083       .  S
C3963      C3964   1.402       .  A
C3964      H3972   1.084       .  S
C3973      C3974   1.400       .  A
C3973      C3978   1.401       .  A
C3974      C3975   1.398       .  A
C3974      H3987   1.083       .  S
C3975      C3976   1.415       .  A
C3975      H3988   1.077       .  S
C3976      C3982   1.431       .  A
C3976      C3977   1.423       .  A
C3977      C3979   1.399       .  A
C3977      C3978   1.404       .  A
C3978      H3989   1.085       .  S
C3979      C3980   1.388       .  A
C3979      H3990   1.084       .  S
C3980      C3981   1.399       .  A
C3980      H3991   1.084       .  S
C3981      C3982   1.422       .  A
C3981      C3986   1.402       .  A
C3982      C3983   1.417       .  A
C3983      C3984   1.399       .  A
C3983      H3992   1.077       .  S
C3984      C3985   1.399       .  A
C3984      H3993   1.083       .  S
C3985      C3986   1.400       .  A
C3986      H3994   1.085       .  S
C3995      C3996   1.401       .  A
C3995      C4000   1.400       .  A
C3996      C3997   1.399       .  A
C3996      H4009   1.083       .  S
C3997      C3998   1.415       .  A
C3997      H4010   1.078       .  S
C3998      C4004   1.433       .  A
C3998      C3999   1.423       .  A
C3999      C4001   1.399       .  A
C3999      C4000   1.406       .  A
C4000      H4011   1.084       .  S
C4001      C4002   1.389       .  A
C4001      H4012   1.084       .  S
C4002      C4003   1.399       .  A
C4002      H4013   1.084       .  S
C4003      C4004   1.422       .  A
C4003      C4008   1.405       .  A
C4004      C4005   1.416       .  A
C4005      C4006   1.400       .  A
C4005      H4014   1.078       .  S
C4006      C4007   1.401       .  A
C4007      C4008   1.401       .  A
C4008      H4016   1.084       .  S
C4017      C4018   1.401       .  A
C4017      C4022   1.399       .  A
C4018      C4019   1.399       .  A
C4018      H4031   1.083       .  S
C4019      C4020   1.416       .  A
C4019      H4032   1.077       .  S
C4020      C4026   1.432       .  A
C4020      C4021   1.423       .  A
C4021      C4023   1.398       .  A
C4021      C4022   1.403       .  A
C4022      H4033   1.085       .  S
C4023      C4024   1.388       .  A
C4023      H4034   1.084       .  S
C4024      C4025   1.398       .  A
C4024      H4035   1.084       .  S
C4025      C4026   1.423       .  A
C4025      C4030   1.403       .  A
C4026      C4027   1.416       .  A
C4027      C4028   1.400       .  A
C4027      H4036   1.077       .  S
C4028      C4029   1.401       .  A
C4028      H4037   1.083       .  S
C4029      C4030   1.400       .  A
C4030      H4038   1.084       .  S
C4039      C4040   1.400       .  A
C4039      C4044   1.402       .  A
C4040      C4041   1.396       .  A
C4040      H4053   1.083       .  S
C4041      C4042   1.415       .  A
C4041      H4054   1.077       .  S
C4042      C4048   1.431       .  A
C4042      C4043   1.422       .  A
C4043      C4045   1.400       .  A
C4043      C4044   1.408       .  A
C4044      H4055   1.084       .  S
C4045      C4046   1.392       .  A
C4045      H4056   1.084       .  S
C4046      C4047   1.400       .  A
C4046      H4057   1.084       .  S
C4047      C4048   1.424       .  A
C4047      C4052   1.410       .  A
C4048      C4049   1.413       .  A
C4049      C4050   1.394       .  A
C4049      H4058   1.077       .  S
C4050      C4051   1.401       .  A
C4050      H4059   1.083       .  S
C4051      C4052   1.403       .  A
C4052      H4060   1.084       .  S
C4061      C4062   1.401       .  A
C4061      C4066   1.402       .  A
C4062      C4063   1.400       .  A
C4062      H4075   1.083       .  S
C4063      C4064   1.416       .  A
C4063      H4076   1.077       .  S
C4064      C4070   1.433       .  A
C4064      C4065   1.423       .  A
C4065      C4067   1.399       .  A
C4065      C4066   1.406       .  A
C4066      H4077   1.084       .  S
C4067      C4068   1.389       .  A
C4067      H4078   1.084       .  S
C4068      C4069   1.399       .  A
C4068      H4079   1.084       .  S
C4069      C4070   1.422       .  A
C4069      C4074   1.405       .  A
C4070      C4071   1.417       .  A
C4071      C4072   1.401       .  A
C4071      H4080   1.077       .  S
C4072      C4073   1.401       .  A
C4072      H4081   1.083       .  S
C4073      C4074   1.402       .  A
C4083      C4084   1.400       .  A
C4083      C4088   1.400       .  A
C4084      C4085   1.396       .  A
C4084      H4097   1.083       .  S
C4085      C4086   1.414       .  A
C4085      H4098   1.077       .  S
C4086      C4092   1.431   1_655  A
C4086      C4087   1.424       .  A
C4087      C4089   1.399       .  A
C4087      C4088   1.406       .  A
C4088      H4099   1.085       .  S
C4089      C4090   1.389   1_655  A
C4089      H4100   1.084       .  S
C4090      C4091   1.399       .  A
C4090      H4101   1.084       .  S
C4091      C4092   1.422       .  A
C4091      C4096   1.403       .  A
C4092      C4093   1.417       .  A
C4093      C4094   1.399       .  A
C4093      H4102   1.077   1_455  S
C4094      C4095   1.400       .  A
C4094      H4103   1.083       .  S
C4095      C4096   1.401       .  A
C4096      H4104   1.084       .  S
