geometry optimzed in LAMMPS
_audit_creation_date              2020-11-30 
_audit_creation_method            'lammps2cif' 
_symmetry_space_group_name_H-M    'P1' 
_symmetry_Int_Tables_number       1 
_symmetry_cell_setting            triclinic 
loop_ 
_symmetry_equiv_pos_as_xyz 
  x,y,z 
_cell_length_a                    28.65948123 
_cell_length_b                    28.695862179813734 
_cell_length_c                    28.28408902215377 
_cell_angle_alpha                 89.80772702195189 
_cell_angle_beta                  89.9083781315589 
_cell_angle_gamma                 89.93582557007396 
loop_ 
_atom_site_label 
_atom_site_type_symbol 
_atom_site_fract_x 
_atom_site_fract_y 
_atom_site_fract_z 
_atom_site_charge 
Zn1        Zn  0.00105430  0.91808006  0.01578001     1.49700
Zn2        Zn  0.03354610  0.02582052  0.03841046     1.49400
Zn3        Zn  0.00379215  0.00350830  0.93211157     1.49100
Zn4        Zn  0.92806908  0.00744370  0.01338669     1.49500
O5          O  0.99263099  0.98764426  0.99981971    -1.83400
O6          O  0.04871703  0.90876193  0.06967212    -0.74100
O7          O  0.07500085  0.06590681  0.99383368    -0.73900
O8          O  0.03201018  0.94357626  0.90395780    -0.73400
O9          O  0.07365468  0.98126783  0.08215993    -0.74100
O10         O  0.03414143  0.88550749  0.95684226    -0.73700
O11         O  0.05379692  0.05392013  0.91961516    -0.74300
O12         O  0.89567102  0.04840180  0.96108415    -0.73700
O13         O  0.99180534  0.07572091  0.07226738    -0.74400
O14         O  0.94410936  0.03500774  0.90143587    -0.73800
O15         O  0.92093489  0.04525082  0.07121923    -0.74300
O16         O  0.89308332  0.95146945  0.03255824    -0.74200
O17         O  0.93674213  0.88795158  0.04110763    -0.74000
C18         C  0.07605349  0.93705788  0.09056258     0.77800
C19         C  0.07818994  0.07592951  0.94962072     0.78300
C20         C  0.04438359  0.90196572  0.91573030     0.77300
C21         C  0.90681459  0.05441342  0.91775786     0.77600
C22         C  0.94801926  0.07814975  0.08172652     0.78800
C23         C  0.89722272  0.90890728  0.04491989     0.77800
C24         C  0.09703619  0.39031407  0.08228975     0.03800
C25         C  0.06836930  0.35564452  0.06484338    -0.12300
C26         C  0.06833215  0.31145425  0.08376470     0.01300
C27         C  0.10223596  0.29743187  0.11612050    -0.10900
C28         C  0.13628967  0.32883806  0.13217030     0.03800
C29         C  0.13306589  0.37679756  0.11545148    -0.10300
H30         H  0.04149154  0.36425328  0.03913836     0.09400
H31         H  0.10043847  0.26238894  0.13033599     0.06900
H32         H  0.15695125  0.40280211  0.12873530     0.06800
C33         C  0.92570976  0.12334853  0.09306629     0.03800
C34         C  0.93806736  0.16060534  0.06396632    -0.12300
C35         C  0.91251605  0.20213474  0.06414501     0.01300
C36         C  0.87086126  0.20454232  0.08970927    -0.10900
C37         C  0.86108680  0.17081943  0.12389283     0.03800
C38         C  0.88756387  0.12891601  0.12465896    -0.10300
H39         H  0.96950667  0.15803230  0.04276711     0.09400
H40         H  0.85188592  0.23730020  0.09039041     0.06900
H41         H  0.87884008  0.10142585  0.14944264     0.06800
C42         C  0.83244893  0.11086935  0.37759771     0.03800
C43         C  0.81046452  0.11282329  0.42151581    -0.12300
C44         C  0.83452296  0.10097397  0.46253509     0.01300
C45         C  0.88030252  0.08653948  0.46131482    -0.10900
C46         C  0.90217426  0.07776619  0.41863876     0.03800
C47         C  0.87869133  0.09084629  0.37566324    -0.10300
H48         H  0.77542145  0.12681986  0.42462021     0.09400
H49         H  0.89773353  0.07828552  0.49442126     0.06900
H50         H  0.89590752  0.08603614  0.34194697     0.06800
C51         C  0.66285451  0.16838064  0.66478150     0.03800
C52         C  0.70539879  0.15268822  0.64768354    -0.12300
C53         C  0.70801861  0.12767576  0.60625412     0.01300
C54         C  0.66808228  0.11198281  0.58326727    -0.10900
C55         C  0.62370748  0.12011384  0.60138962     0.03800
C56         C  0.62061475  0.15013577  0.64289943    -0.10300
H57         H  0.73758055  0.16302118  0.66488061     0.09400
H58         H  0.67210520  0.09178238  0.55113730     0.06900
H59         H  0.58680877  0.15922193  0.65724314     0.06800
Zn60       Zn  0.73392321  0.22510479  0.19188359     1.49700
Zn61       Zn  0.82115826  0.21373997  0.26680689     1.49400
Zn62       Zn  0.74444870  0.29425812  0.28038552     1.49100
Zn63       Zn  0.71593918  0.18595623  0.29737206     1.49500
O64         O  0.75341619  0.22900250  0.25958873    -1.83400
O65         O  0.78820786  0.19804207  0.15346684    -0.74100
O66         O  0.85646829  0.26832866  0.29908649    -0.73900
O67         O  0.72626437  0.33548355  0.22469482    -0.73400
O68         O  0.84765813  0.19152748  0.20391585    -0.74100
O69         O  0.71325488  0.28727606  0.16485719    -0.73700
O70         O  0.80101435  0.31959787  0.31667434    -0.74300
O71         O  0.67483894  0.22796801  0.34343747    -0.73700
O72         O  0.83515547  0.16030782  0.31019049    -0.74400
O73         O  0.69217582  0.30160871  0.32584898    -0.73800
O74         O  0.76432596  0.14421495  0.33770778    -0.74300
O75         O  0.67552178  0.14558648  0.24840716    -0.74200
O76         O  0.67949238  0.18244366  0.17916729    -0.74000
C77         C  0.83011932  0.18586126  0.16287728     0.77800
C78         C  0.84323327  0.30586384  0.31964236     0.78300
C79         C  0.71270119  0.32805226  0.18234881     0.77300
C80         C  0.66942778  0.27219905  0.35004389     0.77600
C81         C  0.80911490  0.13806523  0.33846826     0.78800
C82         C  0.66430737  0.14902450  0.20418236     0.77800
C83         C  0.81196490  0.61014542  0.63964280     0.03800
C84         C  0.77661064  0.58231390  0.62058320    -0.12300
C85         C  0.78524924  0.55640398  0.57975674     0.01300
C86         C  0.83042614  0.55165170  0.56278529    -0.10900
C87         C  0.86755472  0.57479500  0.58327984     0.03800
C88         C  0.85844225  0.60534652  0.62183485    -0.10300
H89         H  0.74120875  0.58567511  0.63354698     0.09400
H90         H  0.83642725  0.53039731  0.53165804     0.06900
H91         H  0.88658301  0.62535820  0.63715742     0.06800
C92         C  0.68786838  0.60171646  0.35921688     0.03800
C93         C  0.64162086  0.60162105  0.37829759    -0.12300
C94         C  0.62585584  0.56138998  0.40308318     0.01300
C95         C  0.65522158  0.52275450  0.40627752    -0.10900
C96         C  0.70271672  0.53015681  0.40269768     0.03800
C97         C  0.71769865  0.56422590  0.37033191    -0.10300
H98         H  0.61899186  0.63157026  0.37405353     0.09400
H99         H  0.64324959  0.49285613  0.42648751     0.06900
H100        H  0.75471238  0.56749065  0.36308928     0.06800
Zn101      Zn  0.99906612  0.41205429  0.51467762     1.49700
Zn102      Zn  0.07151054  0.50042704  0.51530695     1.49400
Zn103      Zn  0.96827897  0.51351200  0.48063042     1.49100
Zn104      Zn  0.98864116  0.49327921  0.59172499     1.49500
O105        O  0.00583743  0.48074637  0.52562979    -1.83400
O106        O  0.05490348  0.39155116  0.47219005    -0.74100
O107        O  0.08466928  0.54759791  0.46297227    -0.73900
O108        O  0.93695748  0.46173296  0.43831137    -0.73400
O109        O  0.10597046  0.44087613  0.50232142    -0.74100
O110        O  0.94619822  0.39256087  0.47215540    -0.73700
O111        O  0.01232743  0.55592847  0.43716291    -0.74300
O112        O  0.94320608  0.54589315  0.59723388    -0.73700
O113        O  0.10118825  0.52948463  0.57091366    -0.74400
O114        O  0.91953268  0.54929196  0.52207159    -0.73800
O115        O  0.04774456  0.51397423  0.62600838    -0.74300
O116        O  0.95234508  0.43590766  0.62113060    -0.74200
O117        O  0.97848127  0.37888833  0.57499643    -0.74000
C118        C  0.09429758  0.41213128  0.47024088     0.77800
C119        C  0.05626673  0.56540144  0.43381993     0.78300
C120        C  0.93095224  0.41710340  0.43842567     0.77300
C121        C  0.91397429  0.55893644  0.56629536     0.77600
C122        C  0.08819830  0.52881648  0.61356715     0.78800
C123        C  0.95314987  0.39272838  0.60976155     0.77800
C124        C  0.40916179  0.87960050  0.08795530     0.03800
C125        C  0.42655608  0.83776801  0.07075053    -0.12300
C126        C  0.40424225  0.79571769  0.07846377     0.01300
C127        C  0.36403782  0.79461305  0.10598500    -0.10900
C128        C  0.35143168  0.83299952  0.13316919     0.03800
C129        C  0.37267156  0.87736927  0.12287526    -0.10300
H130        H  0.45951961  0.83791402  0.05196142     0.09400
H131        H  0.34721701  0.76130056  0.11248760     0.06900
H132        H  0.36123890  0.90851830  0.14097950     0.06800
C133        C  0.58978440  0.60515311  0.09721733     0.03800
C134        C  0.62560509  0.62037245  0.12874506    -0.12300
C135        C  0.62749583  0.66868651  0.14277052     0.01300
C136        C  0.59261758  0.69882664  0.12635074    -0.10900
C137        C  0.55895062  0.68286853  0.09517161     0.03800
C138        C  0.56002001  0.63826719  0.07812737    -0.10300
H139        H  0.65049119  0.59546037  0.14260668     0.09400
H140        H  0.59030465  0.73439426  0.13891362     0.06900
H141        H  0.53323598  0.62821046  0.05293037     0.06800
C142        C  0.14400820  0.03440770  0.34983384     0.03800
C143        C  0.14838071  0.08449190  0.34715913    -0.12300
C144        C  0.17857913  0.10559208  0.31320533     0.01300
C145        C  0.20686533  0.07685979  0.28643555    -0.10900
C146        C  0.19948173  0.02927351  0.28401518     0.03800
C147        C  0.16810106  0.00767786  0.31571833    -0.10300
H148        H  0.12821799  0.10657847  0.37047586     0.09400
H149        H  0.23257203  0.09239115  0.26288182     0.06900
H150        H  0.16114174  0.97074997  0.31278041     0.06800
C151        C  0.11447120  0.91835380  0.12198937     0.03800
C152        C  0.11099847  0.87774617  0.15155054    -0.12300
C153        C  0.14967941  0.86419646  0.18031766     0.01300
C154        C  0.19100687  0.88911907  0.17677097    -0.10900
C155        C  0.19550982  0.92914656  0.14887976     0.03800
C156        C  0.15724962  0.94225196  0.12054267    -0.10300
H157        H  0.07902162  0.85773930  0.15258106     0.09400
H158        H  0.21998473  0.87727074  0.19810876     0.06900
H159        H  0.16019700  0.97199021  0.09741499     0.06800
Zn160      Zn  0.23476661  0.76650995  0.20033011     1.49700
Zn161      Zn  0.20164842  0.78403601  0.30381826     1.49400
Zn162      Zn  0.23974749  0.68179442  0.27295105     1.49100
Zn163      Zn  0.31261194  0.77112208  0.27202253     1.49500
O164        O  0.24753885  0.75165553  0.26584188    -1.83400
O165        O  0.16682481  0.78474826  0.19086303    -0.74100
O166        O  0.15784753  0.73073674  0.33586219    -0.73900
O167        O  0.20186335  0.65845213  0.21185062    -0.73400
O168        O  0.16516991  0.82797496  0.25522595    -0.74100
O169        O  0.24742589  0.70528104  0.17292060    -0.73700
O170        O  0.19834060  0.66503078  0.32767512    -0.74300
O171        O  0.34873345  0.71343677  0.29871238    -0.73700
O172        O  0.24457556  0.82378161  0.35014450    -0.74400
O173        O  0.30214825  0.65115470  0.29470669    -0.73800
O174        O  0.31707367  0.82141400  0.32043175    -0.74300
O175        O  0.34057533  0.80117707  0.21079168    -0.74200
O176        O  0.27771936  0.81440855  0.16750413    -0.74000
C177        C  0.15483060  0.82217311  0.21122991     0.77800
C178        C  0.16264201  0.68632378  0.34289357     0.78300
C179        C  0.21172430  0.67940315  0.17327062     0.77300
C180        C  0.34104637  0.66985298  0.30646706     0.77600
C181        C  0.28818626  0.83576034  0.35122830     0.78800
C182        C  0.32135159  0.81940995  0.17422339     0.77800
Zn183      Zn  0.32451480  0.24103691  0.25465748     1.49700
Zn184      Zn  0.23720778  0.24383577  0.32872300     1.49400
Zn185      Zn  0.24688655  0.32323159  0.24192174     1.49100
Zn186      Zn  0.21754345  0.22279974  0.21996492     1.49500
O187        O  0.25679855  0.25778572  0.26179074    -1.83400
O188        O  0.35065947  0.21245571  0.31566896    -0.74100
O189        O  0.19966903  0.29993682  0.35441423    -0.73900
O190        O  0.30887947  0.35400186  0.22242714    -0.73400
O191        O  0.29533126  0.22680679  0.36922149    -0.74100
O192        O  0.36227523  0.29810458  0.23086951    -0.73700
O193        O  0.21429123  0.35215232  0.29746557    -0.74300
O194        O  0.17148730  0.26621280  0.17960003    -0.73700
O195        O  0.19881351  0.18375656  0.33501565    -0.74400
O196        O  0.20156455  0.33669453  0.18659127    -0.73800
O197        O  0.18853613  0.16832639  0.25864697    -0.74300
O198        O  0.26438022  0.19577915  0.17389216    -0.74200
O199        O  0.33683996  0.19554049  0.20230729    -0.74000
C200        C  0.33584846  0.21110907  0.35825041     0.77800
C201        C  0.19566949  0.34103199  0.33709188     0.78300
C202        C  0.35082793  0.33935715  0.21805655     0.77300
C203        C  0.17168214  0.30979464  0.16784646     0.77600
C204        C  0.18572967  0.15626833  0.30245568     0.78800
C205        C  0.30812205  0.18733285  0.16942223     0.77800
C206        C  0.59201691  0.87388590  0.58062289     0.03800
C207        C  0.59315929  0.84562855  0.53999720    -0.12300
C208        C  0.61164529  0.80076631  0.54262589     0.01300
C209        C  0.64934038  0.79502997  0.57290702    -0.10900
C210        C  0.65077837  0.82097627  0.61467491     0.03800
C211        C  0.62076030  0.86061289  0.61945245    -0.10300
H212        H  0.57040879  0.85364146  0.51053430     0.09400
H213        H  0.67041924  0.76395819  0.56991694     0.06900
H214        H  0.61929897  0.87973218  0.65233585     0.06800
C215        C  0.42929058  0.63069392  0.58630424     0.03800
C216        C  0.39571236  0.63727648  0.62292782    -0.12300
C217        C  0.38532850  0.68321169  0.63978105     0.01300
C218        C  0.41182939  0.72080681  0.62068899    -0.10900
C219        C  0.44309368  0.71347973  0.58262648     0.03800
C220        C  0.44831872  0.66927358  0.56436554    -0.10300
H221        H  0.37865076  0.60727871  0.63848797     0.09400
H222        H  0.40925825  0.75512788  0.63621580     0.06900
H223        H  0.47281340  0.66424976  0.53545594     0.06800
Zn224      Zn  0.51042097  0.93909755  0.49324001     1.49700
Zn225      Zn  0.43512310  0.01415863  0.49844778     1.49400
Zn226      Zn  0.51754258  0.01037427  0.58362407     1.49100
Zn227      Zn  0.54392866  0.04703925  0.47928552     1.49500
O228        O  0.50220582  0.00457264  0.51315032    -1.83400
O229        O  0.45463747  0.90807570  0.46054752    -0.74100
O230        O  0.40572152  0.03298739  0.56015379    -0.73900
O231        O  0.56018437  0.95137585  0.59987029    -0.73400
O232        O  0.39869240  0.96049321  0.46658483    -0.74100
O233        O  0.52058949  0.90436814  0.55342860    -0.73700
O234        O  0.45619558  0.02588513  0.62013138    -0.74300
O235        O  0.58515898  0.08599065  0.53145638    -0.73700
O236        O  0.42464053  0.06851429  0.45621183    -0.74400
O237        O  0.55820122  0.06693161  0.60242108    -0.73800
O238        O  0.49715989  0.09501492  0.44567282    -0.74300
O239        O  0.58525210  0.00242575  0.43187145    -0.74200
O240        O  0.56534354  0.92911925  0.44874590    -0.74000
C241        C  0.41253373  0.92043231  0.45331452     0.77800
C242        C  0.41599715  0.03735866  0.60383408     0.78300
C243        C  0.55561613  0.91162844  0.57989823     0.77300
C244        C  0.58540729  0.09150944  0.57707950     0.77600
C245        C  0.45242976  0.09919171  0.44061391     0.78800
C246        C  0.59003669  0.95777692  0.42512472     0.77800
C247        C  0.36663378  0.37749171  0.55396645     0.03800
C248        C  0.33630896  0.37869039  0.51637340    -0.12300
C249        C  0.28846733  0.37530789  0.52326603     0.01300
C250        C  0.27194003  0.35518441  0.56561888    -0.10900
C251        C  0.30324415  0.34583808  0.60318781     0.03800
C252        C  0.35075198  0.36019244  0.59797068    -0.10300
H253        H  0.34987865  0.39257660  0.48338416     0.09400
H254        H  0.23524636  0.34743817  0.56948784     0.06900
H255        H  0.37449206  0.35886969  0.62769030     0.06800
C256        C  0.12361436  0.41201301  0.42677010     0.03800
C257        C  0.13993414  0.37217531  0.40183883    -0.12300
C258        C  0.17195271  0.37895039  0.36367761     0.01300
C259        C  0.18730819  0.42462636  0.35381580    -0.10900
C260        C  0.18342365  0.45790998  0.38938555     0.03800
C261        C  0.14118521  0.45584623  0.41339614    -0.10300
H262        H  0.12901930  0.33753443  0.41224570     0.09400
H263        H  0.21295825  0.43057366  0.32643267     0.06900
H264        H  0.13084674  0.48637002  0.43308747     0.06800
C265        C  0.63999519  0.29045328  0.38964151     0.03800
C266        C  0.62320220  0.33802290  0.39271068    -0.12300
C267        C  0.60387544  0.35396736  0.43653638     0.01300
C268        C  0.61105264  0.32382727  0.47528679    -0.10900
C269        C  0.60396055  0.27690205  0.46600394     0.03800
C270        C  0.62835520  0.25971427  0.42684094    -0.10300
H271        H  0.62368112  0.36064624  0.36203544     0.09400
H272        H  0.60199304  0.33543081  0.51045126     0.06900
H273        H  0.63218759  0.22240876  0.42260580     0.06800
C274        C  0.36900160  0.19651683  0.39609582     0.03800
C275        C  0.39140484  0.15191577  0.39775477    -0.12300
C276        C  0.43129719  0.14489955  0.42706239     0.01300
C277        C  0.44812217  0.18248143  0.45229121    -0.10900
C278        C  0.42609648  0.22596484  0.45135604     0.03800
C279        C  0.38477621  0.23189018  0.42601502    -0.10300
H280        H  0.37845637  0.12361079  0.37626445     0.09400
H281        H  0.47997598  0.17800297  0.47249043     0.06900
H282        H  0.36870359  0.26603436  0.42442969     0.06800
C283        C  0.59388970  0.58221180  0.88090368     0.03800
C284        C  0.54979369  0.60253151  0.87641365    -0.12300
C285        C  0.54101882  0.63197476  0.83833609     0.01300
C286        C  0.57853124  0.66000695  0.82396737    -0.10900
C287        C  0.62488843  0.64454711  0.83019772     0.03800
C288        C  0.63253282  0.60359603  0.85800304    -0.10300
H289        H  0.52064715  0.58648519  0.89405297     0.09400
H290        H  0.57137296  0.68905782  0.80075652     0.06900
H291        H  0.66706423  0.58859403  0.86115854     0.06800
C292        C  0.61613623  0.42667013  0.72637589     0.03800
C293        C  0.59460357  0.46219162  0.75394829    -0.12300
C294        C  0.56609437  0.49655051  0.73203916     0.01300
C295        C  0.56037889  0.49596765  0.68346328    -0.10900
C296        C  0.58236929  0.46370508  0.65516547     0.03800
C297        C  0.60915122  0.42789471  0.67634463    -0.10300
H298        H  0.60027144  0.46336002  0.79174961     0.09400
H299        H  0.53684905  0.52101122  0.66713669     0.06900
H300        H  0.62419336  0.40124286  0.65398718     0.06800
Zn301      Zn  0.43160520  0.50588885  0.50816996     1.49700
Zn302      Zn  0.50910317  0.48098965  0.43002353     1.49400
Zn303      Zn  0.53520409  0.53450447  0.52661904     1.49100
Zn304      Zn  0.50867760  0.42740656  0.52945299     1.49500
O305        O  0.49661961  0.48732428  0.49901971    -1.83400
O306        O  0.41020721  0.54150297  0.44741684    -0.74100
O307        O  0.55127505  0.53121297  0.40783228    -0.73900
O308        O  0.49047768  0.58397718  0.55412242    -0.73400
O309        O  0.44943657  0.50084461  0.39349454    -0.74100
O310        O  0.42010345  0.55226738  0.56015439    -0.73700
O311        O  0.58106010  0.55947066  0.47442318    -0.74300
O312        O  0.54502955  0.43230623  0.58871354    -0.73700
O313        O  0.55209434  0.42080158  0.41371126    -0.74400
O314        O  0.56983467  0.50558688  0.58371263    -0.73800
O315        O  0.55142939  0.39368890  0.48679428    -0.74300
O316        O  0.44901231  0.39241495  0.54776829    -0.74200
O317        O  0.39809117  0.44878820  0.53010061    -0.74000
C318        C  0.42332925  0.53582322  0.40461515     0.77800
C319        C  0.58174241  0.55496172  0.42919206     0.78300
C320        C  0.44764069  0.58579646  0.56781351     0.77300
C321        C  0.56789188  0.46618976  0.60526264     0.77600
C322        C  0.56789156  0.39224790  0.44499296     0.78800
C323        C  0.40735910  0.40791801  0.54589428     0.77800
C324        C  0.32502437  0.17900530  0.12102551     0.03800
C325        C  0.30504504  0.20882492  0.08825777    -0.12300
C326        C  0.29522507  0.19239070  0.04372357     0.01300
C327        C  0.32082696  0.15375417  0.02641285    -0.10900
C328        C  0.35388300  0.13086567  0.05576371     0.03800
C329        C  0.35275222  0.14147804  0.10503193    -0.10300
H330        H  0.28567768  0.23895512  0.10091303     0.09400
H331        H  0.31333671  0.14012760  0.99165201     0.06900
H332        H  0.37172786  0.12034855  0.13031088     0.06800
C333        C  0.16187486  0.16583625  0.88816807     0.03800
C334        C  0.16339010  0.19693546  0.92644947    -0.12300
C335        C  0.13685936  0.19090683  0.96743979     0.01300
C336        C  0.10566364  0.15391969  0.96926122    -0.10900
C337        C  0.10637315  0.11818809  0.93566657     0.03800
C338        C  0.13350189  0.12484963  0.89330230    -0.10300
H339        H  0.18785424  0.22551992  0.92543102     0.09400
H340        H  0.08308471  0.15085980  0.99973076     0.06900
H341        H  0.13279908  0.09891224  0.86567186     0.06800
C342        C  0.09104276  0.41689468  0.86629522     0.03800
C343        C  0.04809579  0.39535735  0.85464107    -0.12300
C344        C  0.04587296  0.36763062  0.81415827     0.01300
C345        C  0.08409896  0.33802812  0.80901654    -0.10900
C346        C  0.12845210  0.35717764  0.81626587     0.03800
C347        C  0.13245172  0.39728883  0.84631169    -0.10300
H348        H  0.01555667  0.40996836  0.86740020     0.09400
H349        H  0.08051189  0.30764418  0.78676709     0.06900
H350        H  0.16605752  0.41327773  0.85254531     0.06800
C351        C  0.12412564  0.53165582  0.64995986     0.03800
C352        C  0.14091106  0.57222669  0.67192469    -0.12300
C353        C  0.16186444  0.56823701  0.71723364     0.01300
C354        C  0.15394583  0.52627888  0.74305149    -0.10900
C355        C  0.13316856  0.48778808  0.71956905     0.03800
C356        C  0.13229258  0.48912220  0.67072118    -0.10300
H357        H  0.13765874  0.60575212  0.65453239     0.09400
H358        H  0.16104333  0.52467943  0.78059601     0.06900
H359        H  0.12141306  0.45868970  0.65093797     0.06800
Zn360      Zn  0.24141842  0.26891137  0.80807186     1.49700
Zn361      Zn  0.23740279  0.17690897  0.74872086     1.49400
Zn362      Zn  0.20477249  0.27437389  0.70451141     1.49100
Zn363      Zn  0.31785935  0.25995144  0.72988397     1.49500
O364        O  0.25065309  0.24518421  0.74556664    -1.83400
O365        O  0.20668672  0.22236070  0.84665204    -0.74100
O366        O  0.19470467  0.15428739  0.69457727    -0.73900
O367        O  0.16284232  0.31570344  0.75033731    -0.73400
O368        O  0.20023691  0.15520680  0.81021050    -0.74100
O369        O  0.20427974  0.32593012  0.81542645    -0.73700
O370        O  0.16354863  0.22144790  0.67162177    -0.74300
O371        O  0.31790480  0.30517451  0.67507248    -0.73700
O372        O  0.30239618  0.14847294  0.74093080    -0.74400
O373        O  0.24319211  0.31196824  0.65334590    -0.73800
O374        O  0.34432520  0.20000993  0.69969210    -0.74300
O375        O  0.35769084  0.28935377  0.78635844    -0.74200
O376        O  0.29914079  0.28822978  0.83694236    -0.74000
C377        C  0.19103140  0.18084858  0.84582658     0.77800
C378        C  0.16471885  0.17648286  0.67017557     0.78300
C379        C  0.16788342  0.33344367  0.79189641     0.77300
C380        C  0.28690266  0.32047780  0.64663579     0.77600
C381        C  0.33117638  0.15818129  0.70753880     0.78800
C382        C  0.34135869  0.29748231  0.82772798     0.77800
Zn383      Zn  0.54346365  0.02515021  0.98121499     1.49700
Zn384      Zn  0.46313061  0.02266390  0.05691388     1.49400
Zn385      Zn  0.43892460  0.05295762  0.94734408     1.49100
Zn386      Zn  0.47383987  0.94640637  0.96356113     1.49500
O387        O  0.47769781  0.01193873  0.98733575    -1.83400
O388        O  0.57687270  0.03972978  0.04146011    -0.74100
O389        O  0.41331492  0.07267075  0.06462462    -0.73900
O390        O  0.48568338  0.10491914  0.92293740    -0.73400
O391        O  0.52154915  0.04833514  0.09548125    -0.74100
O392        O  0.55588986  0.08137695  0.94693714    -0.73700
O393        O  0.39158529  0.08946571  0.99118563    -0.74300
O394        O  0.42207601  0.93896954  0.91556391    -0.73700
O395        O  0.43377183  0.96134691  0.08430571    -0.74400
O396        O  0.40058404  0.01112554  0.89682478    -0.73800
O397        O  0.44708256  0.91459065  0.02235244    -0.74300
O398        O  0.53447058  0.91815746  0.92554763    -0.74200
O399        O  0.57518484  0.98024541  0.94183861    -0.74000
C400        C  0.56441572  0.05184899  0.08284360     0.77800
C401        C  0.38747931  0.09536713  0.03602590     0.78300
C402        C  0.52980500  0.11165369  0.92878654     0.77300
C403        C  0.39683915  0.96650669  0.89123331     0.77600
C404        C  0.43084023  0.92141510  0.06435815     0.78800
C405        C  0.57174300  0.94218443  0.91972887     0.77800
C406        C  0.87909664  0.33938283  0.33688139     0.03800
C407        C  0.88638572  0.35536170  0.38472493    -0.12300
C408        C  0.91798940  0.39349648  0.39311410     0.01300
C409        C  0.94121989  0.41249887  0.35471716    -0.10900
C410        C  0.92784956  0.40177714  0.30940132     0.03800
C411        C  0.90088256  0.36316338  0.29999623    -0.10300
H412        H  0.86736468  0.33972776  0.41378859     0.09400
H413        H  0.96476578  0.44177807  0.35960249     0.06900
H414        H  0.89134791  0.35606490  0.26356741     0.06800
C415        C  0.88859600  0.63950712  0.18501764     0.03800
C416        C  0.90378630  0.63306898  0.13701690    -0.12300
C417        C  0.93215933  0.59352162  0.12541040     0.01300
C418        C  0.94227531  0.56175057  0.16098744    -0.10900
C419        C  0.93090470  0.56982412  0.20753926     0.03800
C420        C  0.90497517  0.60912882  0.21966172    -0.10300
H421        H  0.89235970  0.65676039  0.10953036     0.09400
H422        H  0.95959781  0.52922338  0.15264744     0.06900
H423        H  0.89298727  0.61322973  0.25581398     0.06800
C424        C  0.60290607  0.06286642  0.11700200     0.03800
C425        C  0.63739476  0.02846695  0.11937760    -0.12300
C426        C  0.67167805  0.02961817  0.15412672     0.01300
C427        C  0.67707670  0.06980198  0.18119449    -0.10900
C428        C  0.64662333  0.10722306  0.17796809     0.03800
C429        C  0.60824155  0.10403534  0.14543769    -0.10300
H430        H  0.63369781  0.99690801  0.09863780     0.09400
H431        H  0.70455030  0.07139287  0.20738899     0.06900
H432        H  0.58391905  0.13270197  0.14183468     0.06800
C433        C  0.62394542  0.93824673  0.38835575     0.03800
C434        C  0.64323911  0.96933464  0.35496267    -0.12300
C435        C  0.67427691  0.95296340  0.32041603     0.01300
C436        C  0.69139907  0.90816371  0.32268250    -0.10900
C437        C  0.66616880  0.87405965  0.34561939     0.03800
C438        C  0.63339029  0.88883177  0.38138421    -0.10300
H439        H  0.63124998  0.00511027  0.35314200     0.09400
H440        H  0.71764485  0.89772191  0.29691521     0.06900
H441        H  0.61489423  0.86295534  0.40204667     0.06800
C442        C  0.07433182  0.59402321  0.39260780     0.03800
C443        C  0.05125690  0.58707974  0.34977096    -0.12300
C444        C  0.05642145  0.61827824  0.31169438     0.01300
C445        C  0.09405593  0.64920655  0.31257610    -0.10900
C446        C  0.12133623  0.65560827  0.35266401     0.03800
C447        C  0.11187206  0.62734931  0.39360307    -0.10300
H448        H  0.02465234  0.56038489  0.34812519     0.09400
H449        H  0.10141601  0.67062307  0.28196925     0.06900
H450        H  0.13264941  0.63146058  0.42522925     0.06800
C451        C  0.95739078  0.82628290  0.37702761     0.03800
C452        C  0.98123666  0.78581893  0.36184483    -0.12300
C453        C  0.95557293  0.74733398  0.34493170     0.01300
C454        C  0.90757682  0.74914177  0.34289691    -0.10900
C455        C  0.88308223  0.78790013  0.35653342     0.03800
C456        C  0.90764194  0.82741873  0.37242559    -0.10300
H457        H  0.01894766  0.78398356  0.36352650     0.09400
H458        H  0.88893225  0.72090412  0.32573167     0.06900
H459        H  0.88820801  0.85876212  0.38060993     0.06800
C460        C  0.85245257  0.88729947  0.06253523     0.03800
C461        C  0.81310850  0.90561691  0.04041065    -0.12300
C462        C  0.77092593  0.91108026  0.06445577     0.01300
C463        C  0.76445884  0.88901819  0.10776854    -0.10900
C464        C  0.79901797  0.85958773  0.12582884     0.03800
C465        C  0.84511715  0.86177420  0.10532338    -0.10300
H466        H  0.81698949  0.92102723  0.00550832     0.09400
H467        H  0.73166645  0.89275297  0.12625680     0.06900
H468        H  0.87429163  0.84489458  0.12259301     0.06800
C469        C  0.61405023  0.93057390  0.88879170     0.03800
C470        C  0.64839914  0.96587232  0.88841210    -0.12300
C471        C  0.69384641  0.95211515  0.89662967     0.01300
C472        C  0.70920649  0.91291168  0.87233816    -0.10900
C473        C  0.67679444  0.88014586  0.85545875     0.03800
C474        C  0.62810185  0.88698651  0.86802200    -0.10300
H475        H  0.64007030  0.00092999  0.89977792     0.09400
H476        H  0.74619782  0.90507011  0.87253080     0.06900
H477        H  0.60296680  0.85934053  0.86306266     0.06800
Zn478      Zn  0.74032908  0.74351567  0.32693148     1.49700
Zn479      Zn  0.70503409  0.77853559  0.22565551     1.49400
Zn480      Zn  0.81300553  0.76223311  0.24045751     1.49100
Zn481      Zn  0.74737432  0.67384703  0.23618539     1.49500
O482        O  0.75010336  0.73932384  0.25676405    -1.83400
O483        O  0.69875353  0.79707126  0.34982948    -0.74100
O484        O  0.74204455  0.82108917  0.17649488    -0.73900
O485        O  0.83322314  0.80201987  0.29489296    -0.73400
O486        O  0.67446252  0.82180980  0.27940825    -0.74100
O487        O  0.80517639  0.75949901  0.35441243    -0.73700
O488        O  0.81703117  0.80550417  0.18659994    -0.74300
O489        O  0.80914445  0.65249993  0.20546869    -0.73700
O490        O  0.66099712  0.73196784  0.18844910    -0.74400
O491        O  0.85857406  0.71077704  0.21801711    -0.73800
O492        O  0.69723033  0.66317133  0.18830404    -0.74300
O493        O  0.72519694  0.63308550  0.29120084    -0.74200
O494        O  0.71057743  0.68191842  0.35070393    -0.74000
C495        C  0.67660553  0.82659746  0.32494935     0.77800
C496        C  0.78526946  0.82734725  0.16519623     0.78300
C497        C  0.83592907  0.78731796  0.33707916     0.77300
C498        C  0.84985668  0.67033350  0.20138716     0.77600
C499        C  0.66369348  0.68895139  0.17505172     0.78800
C500        C  0.70823952  0.64134466  0.33218062     0.77800
C501        C  0.41814894  0.57499348  0.36897271     0.03800
C502        C  0.45860342  0.58423165  0.34274292    -0.12300
C503        C  0.45603877  0.61080482  0.30156405     0.01300
C504        C  0.42324310  0.64669860  0.30096910    -0.10900
C505        C  0.38073208  0.64032788  0.32468893     0.03800
C506        C  0.37769083  0.60320704  0.35919258    -0.10300
H507        H  0.48890273  0.56223417  0.34767507     0.09400
H508        H  0.42489516  0.67185390  0.27258694     0.06900
H509        H  0.34517929  0.59653790  0.37749701     0.06800
C510        C  0.38723760  0.37219461  0.20022368     0.03800
C511        C  0.40095811  0.40850738  0.23051964    -0.12300
C512        C  0.43356930  0.44155638  0.21521203     0.01300
C513        C  0.45486780  0.43651439  0.17185405    -0.10900
C514        C  0.43778854  0.40597719  0.13815660     0.03800
C515        C  0.40461905  0.37177253  0.15255954    -0.10300
H516        H  0.38508681  0.41199177  0.26513369     0.09400
H517        H  0.48122325  0.46191663  0.16174944     0.06900
H518        H  0.39123698  0.34695921  0.12723386     0.06800
Zn519      Zn  0.50759171  0.48367007  0.93015505     1.49700
Zn520      Zn  0.59539422  0.49061214  0.00179286     1.49400
Zn521      Zn  0.49213963  0.50575862  0.03797546     1.49100
Zn522      Zn  0.52409781  0.40357482  0.01129927     1.49500
O523        O  0.52926468  0.47084532  0.99528799    -1.83400
O524        O  0.56371394  0.50648640  0.89179502    -0.74100
O525        O  0.60886342  0.53417921  0.05731941    -0.73900
O526        O  0.44834309  0.54956757  0.00253388    -0.73400
O527        O  0.61163003  0.53384163  0.94683286    -0.74100
O528        O  0.45857329  0.53646886  0.92622070    -0.73700
O529        O  0.53505640  0.54738735  0.07679261    -0.74300
O530        O  0.47548190  0.38884533  0.06360773    -0.73700
O531        O  0.63401185  0.43243890  0.00989081    -0.74400
O532        O  0.45691199  0.46196715  0.08068994    -0.73800
O533        O  0.58477127  0.38492979  0.04640078    -0.74300
O534        O  0.50356028  0.36978135  0.95078434    -0.74200
O535        O  0.47258729  0.42636847  0.90626056    -0.74000
C536        C  0.59331830  0.53678270  0.90601633     0.77800
C537        C  0.57851934  0.55751940  0.07977496     0.78300
C538        C  0.43915502  0.55927192  0.95937351     0.77300
C539        C  0.45467932  0.41830154  0.08975263     0.77600
C540        C  0.62488133  0.40388782  0.04344655     0.78800
C541        C  0.47380320  0.38402024  0.91990190     0.77800
Zn542      Zn  0.04158535  0.94764179  0.54682957     1.49700
Zn543      Zn  0.04271219  0.02864715  0.46540873     1.49400
Zn544      Zn  0.07127444  0.91929476  0.43809669     1.49100
Zn545      Zn  0.96505225  0.94939756  0.46262037     1.49500
O546        O  0.03147147  0.96079413  0.47797893    -1.83400
O547        O  0.07054560  0.00554340  0.58010763    -0.74100
O548        O  0.08881621  0.03732482  0.41278039    -0.73900
O549        O  0.11184094  0.87656360  0.48569664    -0.73400
O550        O  0.07212386  0.06073264  0.52463067    -0.74100
O551        O  0.08637320  0.89432547  0.55782383    -0.73700
O552        O  0.11071533  0.96581615  0.39130981    -0.74300
O553        O  0.95648000  0.89463852  0.42256195    -0.73700
O554        O  0.98160491  0.06204298  0.44164620    -0.74400
O555        O  0.02693055  0.87095662  0.40095345    -0.73800
O556        O  0.93413323  0.00281679  0.42682642    -0.74300
O557        O  0.92698968  0.93241585  0.52129646    -0.74200
O558        O  0.97943732  0.92637767  0.57882409    -0.74000
C559        C  0.08074921  0.04713612  0.56697826     0.77800
C560        C  0.11293778  0.01081646  0.38635693     0.78300
C561        C  0.11184921  0.86955757  0.53095315     0.77300
C562        C  0.98218065  0.86613091  0.40060915     0.77600
C563        C  0.94305042  0.04622459  0.42510877     0.78800
C564        C  0.93743018  0.92242817  0.56397924     0.77800
C565        C  0.37784975  0.88433931  0.43860755     0.03800
C566        C  0.34735986  0.88643950  0.39860160    -0.12300
C567        C  0.30910283  0.85450009  0.39542564     0.01300
C568        C  0.30095162  0.82506189  0.43331332    -0.10900
C569        C  0.33524842  0.81693697  0.46732673     0.03800
C570        C  0.37381747  0.84636960  0.46941566    -0.10300
H571        H  0.35374680  0.91133300  0.37050800     0.09400
H572        H  0.27002336  0.80333196  0.43278181     0.06900
H573        H  0.39930836  0.84184995  0.49704964     0.06800
C574        C  0.16473431  0.78278447  0.62232505     0.03800
C575        C  0.17787727  0.74792632  0.59082472    -0.12300
C576        C  0.18823247  0.76078832  0.54467309     0.01300
C577        C  0.16444930  0.79892667  0.52448305    -0.10900
C578        C  0.13966131  0.83031906  0.55335622     0.03800
C579        C  0.14359070  0.82400221  0.60369682    -0.10300
H580        H  0.19541702  0.71723750  0.60483254     0.09400
H581        H  0.17014828  0.80723664  0.48752683     0.06900
H582        H  0.13124730  0.85067568  0.62764434     0.06800
C583        C  0.43216019  0.35420068  0.91210852     0.03800
C584        C  0.41266728  0.33767143  0.95425572    -0.12300
C585        C  0.37868242  0.30319759  0.95392574     0.01300
C586        C  0.35166828  0.29997563  0.91354409    -0.10900
C587        C  0.36915786  0.31450719  0.86917298     0.03800
C588        C  0.41062850  0.34214977  0.86825777    -0.10300
H589        H  0.42921757  0.34628237  0.98752359     0.09400
H590        H  0.32113111  0.27808466  0.91578840     0.06900
H591        H  0.42512340  0.35422898  0.83507208     0.06800
C592        C  0.54857051  0.15908528  0.93121749     0.03800
C593        C  0.53826885  0.18228946  0.97285960    -0.12300
C594        C  0.53413385  0.23028265  0.97019355     0.01300
C595        C  0.56293998  0.25471502  0.93800602    -0.10900
C596        C  0.58899795  0.22944767  0.90428510     0.03800
C597        C  0.57775700  0.18129843  0.89812471    -0.10300
H598        H  0.51821883  0.16395571  0.99981648     0.09400
H599        H  0.56279427  0.29243348  0.93742631     0.06900
H600        H  0.59162343  0.16148589  0.86876013     0.06800
C601        C  0.12527974  0.14952854  0.64737832     0.03800
C602        C  0.08045780  0.16390730  0.66058506    -0.12300
C603        C  0.04118070  0.13779954  0.64863156     0.01300
C604        C  0.04549229  0.09674825  0.62377578    -0.10900
C605        C  0.08778002  0.08341073  0.60439582     0.03800
C606        C  0.12914881  0.10901993  0.61729498    -0.10300
H607        H  0.07580659  0.19601100  0.68019895     0.09400
H608        H  0.01386931  0.07840216  0.61385811     0.06900
H609        H  0.16290953  0.09825550  0.60404550     0.06800
C610        C  0.92341116  0.35643659  0.63461777     0.03800
C611        C  0.88273660  0.36501542  0.66321838    -0.12300
C612        C  0.85417806  0.32654379  0.67828198     0.01300
C613        C  0.86616593  0.28169785  0.66490982    -0.10900
C614        C  0.90711385  0.27320174  0.64115554     0.03800
C615        C  0.93516410  0.30979763  0.62561834    -0.10300
H616        H  0.87337119  0.40023970  0.67297864     0.09400
H617        H  0.84586276  0.25210730  0.67742612     0.06900
H618        H  0.96748008  0.30135229  0.60759995     0.06800
C619        C  0.65750520  0.40262232  0.08452149     0.03800
C620        C  0.66699463  0.36360133  0.11359570    -0.12300
C621        C  0.69793187  0.36820458  0.15265737     0.01300
C622        C  0.71875565  0.41157500  0.16172470    -0.10900
C623        C  0.71297765  0.44906261  0.13053722     0.03800
C624        C  0.67890438  0.44492788  0.09524541    -0.10300
H625        H  0.65094557  0.33034704  0.10588217     0.09400
H626        H  0.74334843  0.41478165  0.19045980     0.06900
H627        H  0.67118698  0.47440681  0.07287426     0.06800
C628        C  0.87364900  0.45387599  0.94429573     0.03800
C629        C  0.84589031  0.47630842  0.97716642    -0.12300
C630        C  0.80048609  0.46251135  0.98555644     0.01300
C631        C  0.77880063  0.42991323  0.95565980    -0.10900
C632        C  0.80388856  0.40936735  0.91795581     0.03800
C633        C  0.85268379  0.42072553  0.91339848    -0.10300
H634        H  0.86153904  0.50159737  0.00093197     0.09400
H635        H  0.74344346  0.41886643  0.96329672     0.06900
H636        H  0.87394323  0.40368678  0.88691580     0.06800
Zn637      Zn  0.70279420  0.22489613  0.80596438     1.49700
Zn638      Zn  0.71023232  0.30418597  0.72857459     1.49400
Zn639      Zn  0.68646378  0.33562549  0.83766581     1.49100
Zn640      Zn  0.79090938  0.29431711  0.81525968     1.49500
O641        O  0.72258653  0.29065489  0.79709030    -1.83400
O642        O  0.67770904  0.19071702  0.74567764    -0.74100
O643        O  0.66642268  0.35993398  0.72086329    -0.73900
O644        O  0.63654200  0.29515696  0.87638572    -0.73400
O645        O  0.67986286  0.24670767  0.69178119    -0.74100
O646        O  0.64993175  0.22351488  0.84947372    -0.73700
O647        O  0.65002650  0.38413818  0.79359211    -0.74300
O648        O  0.80497491  0.34580252  0.86281163    -0.73700
O649        O  0.77342056  0.32336105  0.69812403    -0.74400
O650        O  0.73489625  0.37371825  0.88139095    -0.73800
O651        O  0.82609867  0.31543898  0.75585721    -0.74300
O652        O  0.81844325  0.23007182  0.84189767    -0.74200
O653        O  0.75493382  0.18612751  0.83700168    -0.74000
C654        C  0.66973879  0.20451124  0.70339802     0.77800
C655        C  0.64568380  0.38840553  0.74844759     0.78300
C656        C  0.62667261  0.25128935  0.87505620     0.77300
C657        C  0.77980737  0.37448825  0.88584289     0.77600
C658        C  0.81552727  0.32601926  0.71318258     0.78800
C659        C  0.79811343  0.19061279  0.84776719     0.77800
C660        C  0.12502937  0.81504103  0.84545017     0.03800
C661        C  0.10233113  0.83584233  0.88564554    -0.12300
C662        C  0.06988098  0.87368809  0.87833725     0.01300
C663        C  0.05947767  0.88633372  0.83145129    -0.10900
C664        C  0.07533989  0.86021477  0.79292185     0.03800
C665        C  0.11420323  0.83213185  0.80035819    -0.10300
H666        H  0.10990036  0.82348648  0.92099493     0.09400
H667        H  0.03393738  0.91318271  0.82501690     0.06900
H668        H  0.13128505  0.81698948  0.76980772     0.06800
C669        C  0.96403552  0.66749376  0.86773381     0.03800
C670        C  0.99223443  0.69969060  0.84232354    -0.12300
C671        C  0.97152929  0.73060507  0.80928182     0.01300
C672        C  0.92396881  0.72911848  0.80244717    -0.10900
C673        C  0.89480894  0.70379836  0.83178348     0.03800
C674        C  0.91454316  0.67054975  0.86297020    -0.10300
H675        H  0.02950539  0.70074964  0.84841563     0.09400
H676        H  0.90892343  0.75107443  0.77499012     0.06900
H677        H  0.89202837  0.64794883  0.88354457     0.06800
C678        C  0.82537065  0.14560532  0.85161251     0.03800
C679        C  0.82040758  0.12003625  0.81038849    -0.12300
C680        C  0.83903555  0.07624286  0.80567610     0.01300
C681        C  0.86624596  0.05656958  0.84127951    -0.10900
C682        C  0.87442819  0.08003262  0.88370959     0.03800
C683        C  0.85286457  0.12558748  0.88963022    -0.10300
H684        H  0.80228238  0.13501137  0.78019124     0.09400
H685        H  0.88197280  0.02269266  0.83518970     0.06900
H686        H  0.85775756  0.14474443  0.92212133     0.06800
C687        C  0.85549129  0.87594281  0.66311713     0.03800
C688        C  0.83995990  0.91970262  0.67767237    -0.12300
C689        C  0.85108276  0.96018151  0.65236422     0.01300
C690        C  0.87593874  0.95712501  0.61050871    -0.10900
C691        C  0.89875851  0.91596230  0.59869848     0.03800
C692        C  0.88736554  0.87413514  0.62401470    -0.10300
H693        H  0.81927810  0.92254320  0.70966514     0.09400
H694        H  0.88297237  0.98850999  0.59061724     0.06900
H695        H  0.90303375  0.84133716  0.61382094     0.06800
Zn696      Zn  0.68438241  0.76459216  0.75501364     1.49700
Zn697      Zn  0.78535977  0.79484489  0.78019717     1.49400
Zn698      Zn  0.76191954  0.68264699  0.76849681     1.49100
Zn699      Zn  0.77246644  0.75310940  0.67957590     1.49500
O700        O  0.75094722  0.74824893  0.74623380    -1.83400
O701        O  0.66913288  0.81471177  0.80315100    -0.74100
O702        O  0.83392695  0.75662281  0.81635137    -0.73900
O703        O  0.70467213  0.65626289  0.80423862    -0.73400
O704        O  0.74083337  0.83574369  0.82212397    -0.74100
O705        O  0.65083469  0.70803579  0.78225979    -0.73700
O706        O  0.81838577  0.68034872  0.81077062    -0.74300
O707        O  0.79470648  0.69007691  0.65386056    -0.73700
O708        O  0.81974532  0.83870215  0.73125196    -0.74400
O709        O  0.78225254  0.64014570  0.71297276    -0.73800
O710        O  0.82555775  0.79804135  0.66522422    -0.74300
O711        O  0.71879326  0.78336118  0.64364358    -0.74200
O712        O  0.65978043  0.79402834  0.69414508    -0.74000
C713        C  0.69636390  0.84073618  0.82634080     0.77800
C714        C  0.84498827  0.71360527  0.82288980     0.78300
C715        C  0.66240788  0.67057811  0.80419216     0.77300
C716        C  0.79677686  0.64891472  0.67105954     0.77600
C717        C  0.83437530  0.83470564  0.68837752     0.78800
C718        C  0.67835316  0.79976993  0.65349050     0.77800
Zn719      Zn  0.00512633  0.52749088  0.91884538     1.49700
Zn720      Zn  0.09816705  0.51325388  0.98949334     1.49400
Zn721      Zn  0.01907098  0.60183588  0.99914390     1.49100
Zn722      Zn  0.99564714  0.49487317  0.02509841     1.49500
O723        O  0.03045153  0.53491185  0.98318071    -1.83400
O724        O  0.04871581  0.48376493  0.88693243    -0.74100
O725        O  0.13599816  0.57065908  0.01472308    -0.73900
O726        O  0.99657207  0.64177959  0.94191659    -0.73400
O727        O  0.11406250  0.47237180  0.92843810    -0.74100
O728        O  0.98993209  0.58953400  0.88445462    -0.73700
O729        O  0.07990271  0.62389836  0.02775620    -0.74300
O730        O  0.96313432  0.53805866  0.07147254    -0.73700
O731        O  0.11264159  0.46307828  0.04100546    -0.74400
O732        O  0.97047356  0.61247831  0.05165877    -0.73800
O733        O  0.03943701  0.44702664  0.05955258    -0.74300
O734        O  0.94286955  0.46125845  0.98936533    -0.74200
O735        O  0.94291222  0.49239046  0.91746424    -0.74000
C736        C  0.08654312  0.46133607  0.89431201     0.77800
C737        C  0.12188491  0.60956084  0.03238524     0.78300
C738        C  0.98538408  0.63129999  0.89948295     0.77300
C739        C  0.95446620  0.58126255  0.07917191     0.77600
C740        C  0.08329888  0.43767102  0.06277015     0.78800
C741        C  0.92383857  0.46678845  0.94874960     0.77800
C742        C  0.33797036  0.12138707  0.67146056     0.03800
C743        C  0.29616015  0.10151189  0.65643349    -0.12300
C744        C  0.29448063  0.05366678  0.65000069     0.01300
C745        C  0.33565487  0.03212614  0.63386807    -0.10900
C746        C  0.37835904  0.05600353  0.63445652     0.03800
C747        C  0.38047306  0.09984380  0.65787365    -0.10300
H748        H  0.26419640  0.11978330  0.66271590     0.09400
H749        H  0.33572445  0.99628630  0.62266097     0.06900
H750        H  0.41357997  0.11677085  0.66432568     0.06800
C751        C  0.32075903  0.87624906  0.82390909     0.03800
C752        C  0.35693691  0.89514031  0.85254301    -0.12300
C753        C  0.36177482  0.94490074  0.85740450     0.01300
C754        C  0.33280100  0.97334544  0.82882728    -0.10900
C755        C  0.29621982  0.95332483  0.80212570     0.03800
C756        C  0.28755803  0.90618087  0.80583048    -0.10300
H757        H  0.38097899  0.87174109  0.87016183     0.09400
H758        H  0.33908072  0.01049267  0.82669881     0.06900
H759        H  0.25723296  0.89184393  0.78801400     0.06800
C760        C  0.18224605  0.68034638  0.12932362     0.03800
C761        C  0.19042511  0.71934891  0.10019862    -0.12300
C762        C  0.20309256  0.71006878  0.05391753     0.01300
C763        C  0.17834624  0.67481367  0.03076767    -0.10900
C764        C  0.15432757  0.64119648  0.05752385     0.03800
C765        C  0.15989777  0.64147627  0.10789006    -0.10300
H766        H  0.20581940  0.75030904  0.11550140     0.09400
H767        H  0.18212744  0.67049844  0.99290072     0.06900
H768        H  0.14875425  0.61202043  0.12904905     0.06800
C769        C  0.34289270  0.63804551  0.90481795     0.03800
C770        C  0.37947249  0.60425447  0.90669810    -0.12300
C771        C  0.40595282  0.59859085  0.94944531     0.01300
C772        C  0.39927413  0.63085023  0.98638422    -0.10900
C773        C  0.36212367  0.66203807  0.98530634     0.03800
C774        C  0.33285293  0.66229339  0.94622221    -0.10300
H775        H  0.38635210  0.58237745  0.87640852     0.09400
H776        H  0.42140231  0.62987631  0.01729233     0.06900
H777        H  0.30144590  0.68317080  0.94811202     0.06800
Zn778      Zn  0.18397274  0.71355690  0.75848082     1.49700
Zn779      Zn  0.28373418  0.65596507  0.75893160     1.49400
Zn780      Zn  0.27982765  0.76463514  0.72426632     1.49100
Zn781      Zn  0.25967398  0.74244811  0.83271349     1.49500
O782        O  0.25255832  0.71853137  0.76761624    -1.83400
O783        O  0.16482420  0.64659667  0.74442994    -0.74100
O784        O  0.33204690  0.65889529  0.70260182    -0.73900
O785        O  0.22799822  0.78728247  0.67717499    -0.73400
O786        O  0.23196256  0.60705297  0.74218111    -0.74100
O787        O  0.16421574  0.74876598  0.69900328    -0.73700
O788        O  0.33328828  0.73422474  0.68362150    -0.74300
O789        O  0.30563236  0.79595072  0.84008932    -0.73700
O790        O  0.31957565  0.63642338  0.82108712    -0.74400
O791        O  0.30418686  0.81938587  0.76518463    -0.73800
O792        O  0.28971521  0.69046566  0.86883988    -0.74300
O793        O  0.19911183  0.77591972  0.85792976    -0.74200
O794        O  0.14598778  0.74240945  0.81253693    -0.74000
C795        C  0.18744534  0.60895136  0.73715193     0.77800
C796        C  0.34846376  0.69248256  0.67749288     0.78300
C797        C  0.18514935  0.77605000  0.67046667     0.77300
C798        C  0.31312551  0.82702823  0.80905799     0.77600
C799        C  0.31552053  0.65445396  0.86228203     0.78800
C800        C  0.15722996  0.77351799  0.84276781     0.77800
C801        C  0.27770094  0.67115408  0.06970317    -0.05100
C802        C  0.25417371  0.70867389  0.04805427     0.00800
C803        C  0.28021289  0.74343844  0.02487795    -0.07700
C804        C  0.32746844  0.73378576  0.01527837    -0.05100
C805        C  0.34662469  0.68961267  0.02659274     0.00800
C806        C  0.32525586  0.66417100  0.06320233    -0.07600
C807        C  0.34861564  0.62368092  0.08814510     0.62700
H808        H  0.25845509  0.64589045  0.09032140     0.13400
H809        H  0.34504506  0.75496247  0.98931807     0.13400
C810        C  0.25751436  0.78804919  0.00769761     0.63000
F811        F  0.39436519  0.63454833  0.09857026    -0.22200
F812        F  0.34722417  0.58435954  0.06012145    -0.19500
F813        F  0.32621125  0.61389073  0.13044501    -0.19200
F814        F  0.23949893  0.81213611  0.04588560    -0.19300
F815        F  0.22174937  0.77772429  0.97668730    -0.19600
F816        F  0.28913130  0.81671639  0.98467969    -0.22300
C817        C  0.24665852  0.04682151  0.72285110    -0.05100
C818        C  0.25973341  0.02694817  0.67891001     0.00800
C819        C  0.26034526  0.97817095  0.67681555    -0.07700
C820        C  0.27051722  0.95403165  0.71836271    -0.05100
C821        C  0.27275263  0.97740215  0.76238409     0.00800
C822        C  0.25422249  0.02267578  0.76532699    -0.07600
C823        C  0.24196509  0.04660241  0.81135450     0.62700
H824        H  0.23725398  0.08305531  0.72534577     0.13400
H825        H  0.27961592  0.91752278  0.71537400     0.13400
C826        C  0.25386338  0.95163452  0.63130685     0.63000
F827        F  0.19589772  0.06073029  0.80944078    -0.22200
F828        F  0.27023637  0.08514700  0.81727558    -0.19500
F829        F  0.24662480  0.01786186  0.85036317    -0.19200
F830        F  0.29251447  0.92418491  0.62274926    -0.19300
F831        F  0.24710690  0.98144790  0.59333958    -0.19600
F832        F  0.21521110  0.92310473  0.63544030    -0.22300
C833        C  0.87890797  0.05563736  0.73379383    -0.05100
C834        C  0.83737173  0.05501861  0.75925890     0.00800
C835        C  0.79643546  0.03550105  0.74001913    -0.07700
C836        C  0.80037649  0.01199690  0.69697927    -0.05100
C837        C  0.84425335  0.00512911  0.67589277     0.00800
C838        C  0.88355923  0.03083398  0.69195446    -0.07600
C839        C  0.93099138  0.03068051  0.66759924     0.62700
H840        H  0.90853726  0.07367155  0.74876275     0.13400
H841        H  0.77066589  0.99332148  0.68291102     0.13400
C842        C  0.75016815  0.03625853  0.76634583     0.63000
F843        F  0.94887285  0.98602617  0.66541580    -0.22200
F844        F  0.96329319  0.05754001  0.69149950    -0.19500
F845        F  0.92671038  0.04919893  0.62264304    -0.19200
F846        F  0.73363212  0.08140878  0.76924367    -0.19300
F847        F  0.75599357  0.01853514  0.81144058    -0.19600
F848        F  0.71664480  0.00962876  0.74389371    -0.22300
C849        C  0.05140699  0.80475423  0.73128257    -0.05100
C850        C  0.04217874  0.84793513  0.75342883     0.00800
C851        C  0.99503242  0.85288150  0.76610269    -0.07700
C852        C  0.97473180  0.81473028  0.78899749    -0.05100
C853        C  0.99539133  0.76992813  0.78510645     0.00800
C854        C  0.03014256  0.76402115  0.74985622    -0.07600
C855        C  0.04147932  0.71641498  0.73004615     0.62700
H856        H  0.08077362  0.80202651  0.70734660     0.13400
H857        H  0.94241979  0.81971543  0.80831752     0.13400
C858        C  0.96873195  0.89812457  0.76046987     0.63000
F859        F  0.07332081  0.71918678  0.69338322    -0.22200
F860        F  0.00112187  0.69636681  0.71271322    -0.19500
F861        F  0.05992124  0.68809100  0.76488981    -0.19200
F862        F  0.99719090  0.93250631  0.74173521    -0.19300
F863        F  0.95140505  0.91289571  0.80359871    -0.19600
F864        F  0.93178215  0.89123972  0.73013719    -0.22300
C865        C  0.74125867  0.51972044  0.09098702    -0.05100
C866        C  0.75119751  0.48437411  0.12420413     0.00800
C867        C  0.79487853  0.46298526  0.11733031    -0.07700
C868        C  0.80698310  0.45187955  0.07099364    -0.05100
C869        C  0.78324794  0.47337584  0.03316941     0.00800
C870        C  0.75324888  0.51149114  0.04309813    -0.07600
C871        C  0.73248936  0.54065237  0.00381085     0.62700
H872        H  0.71409219  0.54459613  0.09939495     0.13400
H873        H  0.83638577  0.42897177  0.06435606     0.13400
C874        C  0.82661172  0.44983716  0.15755271     0.63000
F875        F  0.70396236  0.57558360  0.02126065    -0.22200
F876        F  0.70619054  0.51245723  0.97465698    -0.19500
F877        F  0.76779042  0.56108299  0.97764026    -0.19200
F878        F  0.81289119  0.47254418  0.19823216    -0.19300
F879        F  0.87190624  0.46299721  0.14700228    -0.19600
F880        F  0.82564455  0.40218465  0.16498165    -0.22300
C881        C  0.97595474  0.17043651  0.60561147    -0.05100
C882        C  0.99531112  0.15946070  0.64992130     0.00800
C883        C  0.97517045  0.17677671  0.69180774    -0.07700
C884        C  0.94033933  0.21035116  0.68736224    -0.05100
C885        C  0.92624367  0.22637486  0.64264519     0.00800
C886        C  0.94094633  0.20364111  0.60130046     0.04400
C887        C  0.92444256  0.21693391  0.55219587     0.62700
H888        H  0.99120910  0.15615401  0.57363687     0.13400
H889        H  0.92763809  0.22761400  0.71895536     0.13400
C890        C  0.99116329  0.16370586  0.74119661     0.63000
F891        F  0.91586551  0.17706838  0.52624496    -0.22200
F892        F  0.95879632  0.24254802  0.52966623    -0.19500
F893        F  0.88372868  0.24282543  0.55335365    -0.19200
F894        F  0.01177586  0.20198733  0.76212036    -0.19300
F895        F  0.02263042  0.12714925  0.74145835    -0.19600
F896        F  0.95294526  0.15053018  0.76800684    -0.22300
C897        C  0.45478722  0.22461553  0.94138518    -0.05100
C898        C  0.48497142  0.24338742  0.97571006     0.00800
C899        C  0.46575698  0.25947792  0.01877198    -0.07700
C900        C  0.41672050  0.26530029  0.02129515    -0.05100
C901        C  0.38998747  0.25914426  0.97981442     0.00800
C902        C  0.40699832  0.22497412  0.94848418    -0.07600
C903        C  0.37673913  0.19568636  0.91637238     0.62700
H904        H  0.46867153  0.20612989  0.91108618     0.13400
H905        H  0.40145543  0.28421223  0.05055220     0.13400
C906        C  0.49696776  0.27133284  0.06000188     0.63000
F907        F  0.39044764  0.14966028  0.91947681    -0.22200
F908        F  0.38215207  0.20985367  0.86993069    -0.19500
F909        F  0.33018531  0.19837208  0.92876121    -0.19200
F910        F  0.53062417  0.30277566  0.04553302    -0.19300
F911        F  0.51867659  0.23131487  0.07622859    -0.19600
F912        F  0.47204779  0.29077019  0.09694337    -0.22300
C913        C  0.30425241  0.73987456  0.48492390    -0.05100
C914        C  0.32600723  0.78033364  0.50280724     0.00800
C915        C  0.31289649  0.79582603  0.54792146    -0.07700
C916        C  0.26742999  0.78632111  0.56177765    -0.05100
C917        C  0.23833047  0.75761513  0.53434079     0.00800
C918        C  0.25777077  0.73044761  0.49795234    -0.07600
C919        C  0.22860419  0.69556045  0.47103067     0.62700
H920        H  0.31807034  0.72465683  0.45281849     0.13400
H921        H  0.25303504  0.80530300  0.59131735     0.13400
C922        C  0.34100520  0.83101379  0.57565274     0.63000
F923        F  0.21034054  0.66312028  0.50220231    -0.22200
F924        F  0.25471977  0.67216656  0.43737820    -0.19500
F925        F  0.19239211  0.71832164  0.44837552    -0.19200
F926        F  0.33579653  0.87489333  0.55601258    -0.19300
F927        F  0.38761310  0.81870103  0.57563960    -0.19600
F928        F  0.32640747  0.83258020  0.62229791    -0.22300
C929        C  0.41527400  0.56868288  0.23950952    -0.05100
C930        C  0.45879194  0.58102993  0.25884432     0.00800
C931        C  0.49584358  0.54897934  0.25492675    -0.07700
C932        C  0.48528656  0.50219151  0.24636169    -0.05100
C933        C  0.43935292  0.48791188  0.23629024     0.00800
C934        C  0.40415085  0.52219029  0.23010064    -0.07600
C935        C  0.35499005  0.51013155  0.21382436     0.62700
H936        H  0.38786510  0.59453818  0.23785489     0.13400
H937        H  0.51340840  0.47688844  0.24528710     0.13400
C938        C  0.54617113  0.56332061  0.26098306     0.63000
F939        F  0.32702196  0.54929375  0.20949685    -0.22200
F940        F  0.33403375  0.48083463  0.24636134    -0.19500
F941        F  0.35656066  0.48854491  0.17021385    -0.19200
F942        F  0.55026733  0.61074375  0.26872387    -0.19300
F943        F  0.57064599  0.55244278  0.22026590    -0.19600
F944        F  0.56570613  0.53955951  0.29867515    -0.22300
C945        C  0.68361188  0.91809027  0.97544596    -0.05100
C946        C  0.70553240  0.95224996  0.94732665     0.00800
C947        C  0.73531508  0.98499959  0.96852724    -0.07700
C948        C  0.74767008  0.97772824  0.01605866    -0.05100
C949        C  0.73363386  0.93674587  0.03997963     0.00800
C950        C  0.69568099  0.91106589  0.02238881    -0.07600
C951        C  0.67006756  0.87429368  0.05120493     0.62700
H952        H  0.65878034  0.89462825  0.95964731     0.13400
H953        H  0.77503043  0.99871203  0.03159683     0.13400
C954        C  0.75635695  0.02459947  0.94018627     0.63000
F955        F  0.63103131  0.85787754  0.02778280    -0.22200
F956        F  0.65496305  0.89361920  0.09324786    -0.19500
F957        F  0.69880615  0.83661161  0.06028176    -0.19200
F958        F  0.72114665  0.05194009  0.92143787    -0.19300
F959        F  0.78307749  0.00665995  0.90381142    -0.19600
F960        F  0.78459216  0.05263285  0.96773750    -0.22300
C961        C  0.97344310  0.62327752  0.30614593    -0.05100
C962        C  0.01511627  0.62921795  0.28090210     0.00800
C963        C  0.01701442  0.67216656  0.25636405    -0.07700
C964        C  0.00041678  0.71157097  0.28045320    -0.05100
C965        C  0.97607689  0.70575953  0.32336202     0.00800
C966        C  0.95968064  0.66011857  0.33539672    -0.07600
C967        C  0.92874069  0.64883610  0.37773126     0.62700
H968        H  0.96123983  0.58845357  0.31411750     0.13400
H969        H  0.00555586  0.74607110  0.26563702     0.13400
C970        C  0.04070169  0.67748280  0.20896048     0.63000
F971        F  0.94270263  0.60742103  0.39836880    -0.22200
F972        F  0.88303093  0.64377396  0.36302822    -0.19500
F973        F  0.93100879  0.68279994  0.41223563    -0.19200
F974        F  0.06366039  0.63711872  0.19607187    -0.19300
F975        F  0.07293524  0.71330529  0.21036347    -0.19600
F976        F  0.00745674  0.68780668  0.17514276    -0.22300
C977        C  0.72007777  0.98203986  0.25368828    -0.05100
C978        C  0.67571178  0.97113428  0.27218291     0.00800
C979        C  0.63919835  0.95853470  0.24051644    -0.07700
C980        C  0.64837918  0.96034575  0.19206373    -0.05100
C981        C  0.68697127  0.98544275  0.17573064     0.00800
C982        C  0.72664514  0.98692677  0.20489718    -0.07600
C983        C  0.77408119  0.99952305  0.18560254     0.62700
H984        H  0.74969875  0.98535534  0.27725353     0.13400
H985        H  0.62080342  0.95206637  0.16739906     0.13400
C986        C  0.59096378  0.94298964  0.25705533     0.63000
F987        F  0.80499048  0.96373599  0.19530464    -0.22200
F988        F  0.78994887  0.03992653  0.20670366    -0.19500
F989        F  0.77259234  0.00629877  0.13713804    -0.19200
F990        F  0.57190555  0.97609965  0.28675316    -0.19300
F991        F  0.59384436  0.90084978  0.28047219    -0.19600
F992        F  0.56035339  0.93735730  0.21965717    -0.22300
C993        C  0.89237152  0.51552867  0.25950428    -0.05100
C994        C  0.93464602  0.53009009  0.23959293     0.00800
C995        C  0.97446623  0.50041478  0.24098404    -0.07700
C996        C  0.96924445  0.45594917  0.25975387    -0.05100
C997        C  0.92661370  0.44134431  0.27811800     0.00800
C998        C  0.88743832  0.47156455  0.27922006    -0.07600
C999        C  0.84065431  0.45818918  0.30145690     0.62700
H1000       H  0.86207568  0.53794442  0.25709108     0.13400
H1001       H  0.99929822  0.43299495  0.26218051     0.13400
C1002       C  0.02295270  0.51287644  0.22341463     0.63000
F1003       F  0.84597959  0.44882681  0.34901036    -0.22200
F1004       F  0.82268777  0.41940486  0.27915563    -0.19500
F1005       F  0.80792188  0.49355079  0.29760928    -0.19200
F1006       F  0.02599934  0.55757203  0.20607199    -0.19300
F1007       F  0.03581805  0.48229988  0.18793662    -0.19600
F1008       F  0.05438181  0.50875450  0.26026271    -0.22300
C1009       C  0.02038636  0.43964767  0.77399162    -0.05100
C1010       C  0.02985754  0.39176835  0.76925798     0.00800
C1011       C  0.05632922  0.38148863  0.72871594    -0.07700
C1012       C  0.09528412  0.40980635  0.72060026    -0.05100
C1013       C  0.09729677  0.45549402  0.73982631     0.00800
C1014       C  0.05571259  0.47228899  0.76246156    -0.07600
C1015       C  0.04725654  0.52348164  0.77299857     0.62700
H1016       H  0.99119826  0.44997769  0.79593334     0.13400
H1017       H  0.12228666  0.39728920  0.69697489     0.13400
C1018       C  0.04728315  0.33887327  0.69891682     0.63000
F1019       F  0.00310629  0.53101909  0.79143566    -0.22200
F1020       F  0.05094516  0.54939053  0.73190247    -0.19500
F1021       F  0.07920720  0.53923383  0.80571628    -0.19200
F1022       F  0.00887524  0.31451451  0.71545994    -0.19300
F1023       F  0.08547719  0.30952437  0.69881889    -0.19600
F1024       F  0.03887350  0.35276924  0.65296073    -0.22300
C1025       C  0.21357879  0.17036931  0.04818052    -0.05100
C1026       C  0.24654540  0.20219552  0.02974411     0.00800
C1027       C  0.22947149  0.24749259  0.01685077    -0.07700
C1028       C  0.18125673  0.25244221  0.00807921    -0.05100
C1029       C  0.15201263  0.21351949  0.01231596     0.00800
C1030       C  0.16607772  0.18107473  0.04645626    -0.07600
C1031       C  0.13192636  0.15967416  0.08081483     0.62700
H1032       H  0.22507705  0.14086630  0.06909723     0.13400
H1033       H  0.16818466  0.28367958  0.99096680     0.13400
C1034       C  0.25832311  0.29160994  0.01494788     0.63000
F1035       F  0.14988532  0.16174459  0.12614287    -0.22200
F1036       F  0.12375261  0.11379294  0.06915903    -0.19500
F1037       F  0.08995160  0.18362416  0.08026463    -0.19200
F1038       F  0.24219139  0.32189097  0.04930818    -0.19300
F1039       F  0.25342069  0.31267053  0.97120575    -0.19600
F1040       F  0.30499003  0.28393815  0.02299208    -0.22300
C1041       C  0.54841235  0.58098955  0.73647690    -0.05100
C1042       C  0.54271431  0.53603374  0.75648410     0.00800
C1043       C  0.50580077  0.53014210  0.78957507    -0.07700
C1044       C  0.48661108  0.57069674  0.81052819    -0.05100
C1045       C  0.50737359  0.61448889  0.80135228     0.00800
C1046       C  0.52379473  0.61885942  0.75483328    -0.07600
C1047       C  0.51829672  0.66303013  0.72660178     0.62700
H1048       H  0.56958567  0.58610268  0.70510727     0.13400
H1049       H  0.46223742  0.56762873  0.83949147     0.13400
C1050       C  0.48491924  0.48269936  0.79973054     0.63000
F1051       F  0.49276690  0.65336840  0.68640880    -0.22200
F1052       F  0.56156785  0.67995424  0.71353279    -0.19500
F1053       F  0.49491780  0.69675558  0.75234333    -0.19200
F1054       F  0.51744406  0.45414449  0.82115177    -0.19300
F1055       F  0.47076481  0.46253950  0.75778441    -0.19600
F1056       F  0.44637495  0.48598422  0.82909305    -0.22300
C1057       C  0.52840272  0.27974678  0.42568438    -0.05100
C1058       C  0.55318125  0.26719964  0.46682236     0.00800
C1059       C  0.52821360  0.25901250  0.50920062    -0.07700
C1060       C  0.47902172  0.26070795  0.50769538    -0.05100
C1061       C  0.45570790  0.26559390  0.46406307     0.00800
C1062       C  0.48033493  0.28450078  0.42541549    -0.07600
C1063       C  0.45687061  0.30064836  0.38005719     0.62700
H1064       H  0.54689103  0.28752241  0.39337190     0.13400
H1065       H  0.45903631  0.24836885  0.53775593     0.13400
C1066       C  0.55320124  0.24297803  0.55360032     0.63000
F1067       F  0.48650498  0.32850279  0.35349113    -0.22200
F1068       F  0.41772931  0.32688216  0.39046973    -0.19500
F1069       F  0.44453915  0.26273201  0.35277424    -0.19200
F1070       F  0.58340473  0.27693597  0.56945709    -0.19300
F1071       F  0.57839707  0.20308740  0.54357559    -0.19600
F1072       F  0.52220964  0.23285019  0.58977561    -0.22300
C1073       C  0.27418071  0.40024600  0.44122993    -0.05100
C1074       C  0.25992959  0.40272298  0.48906177     0.00800
C1075       C  0.23340638  0.44245471  0.50348266    -0.07700
C1076       C  0.21821935  0.47416673  0.46839364    -0.05100
C1077       C  0.22601677  0.46498203  0.42001917     0.00800
C1078       C  0.26491967  0.43683045  0.41023826    -0.07600
C1079       C  0.29670836  0.44539954  0.36845889     0.62700
H1080       H  0.29813644  0.37324783  0.42978694     0.13400
H1081       H  0.19419811  0.50177510  0.47772851     0.13400
C1082       C  0.22005786  0.45141344  0.55473050     0.63000
F1083       F  0.34129028  0.45435054  0.38480084    -0.22200
F1084       F  0.28202228  0.48352923  0.34229169    -0.19500
F1085       F  0.29818555  0.40655335  0.33969630    -0.19200
F1086       F  0.25940649  0.45232828  0.58293346    -0.19300
F1087       F  0.19003615  0.41697975  0.57033672    -0.19600
F1088       F  0.19744372  0.49370420  0.56010267    -0.22300
C1089       C  0.52032962  0.73904749  0.60143534    -0.05100
C1090       C  0.48271513  0.74423997  0.57013956     0.00800
C1091       C  0.49305303  0.75573809  0.52189346    -0.07700
C1092       C  0.53895695  0.76758498  0.50924202    -0.05100
C1093       C  0.57557873  0.76322978  0.54165131     0.00800
C1094       C  0.56601518  0.73913207  0.58416589    -0.07600
C1095       C  0.59913835  0.70248095  0.60317230     0.62700
H1096       H  0.51407782  0.72347326  0.63581048     0.13400
H1097       H  0.54613058  0.78200030  0.47449788     0.13400
C1098       C  0.45853595  0.75191891  0.48184261     0.63000
F1099       F  0.57525584  0.66137834  0.61181329    -0.22200
F1100       F  0.61913630  0.71731404  0.64478348    -0.19500
F1101       F  0.63352569  0.69238936  0.57053756    -0.19200
F1102       F  0.41380562  0.74520587  0.49797472    -0.19300
F1103       F  0.47066818  0.71454796  0.45360092    -0.19600
F1104       F  0.45969029  0.79201422  0.45460290    -0.22300
C1105       C  0.20850511  0.02893248  0.19731676    -0.05100
C1106       C  0.21789740  0.00667090  0.24104484     0.00800
C1107       C  0.25045610  0.96937981  0.24137020    -0.07700
C1108       C  0.26360163  0.95056976  0.19712397    -0.05100
C1109       C  0.23591303  0.96162372  0.15742782     0.00800
C1110       C  0.22376931  0.00876152  0.15534059    -0.07600
C1111       C  0.22519511  0.03659200  0.11029400     0.62700
H1112       H  0.19054709  0.06217684  0.19585423     0.13400
H1113       H  0.28606754  0.92027004  0.19553099     0.13400
C1114       C  0.27136066  0.95072000  0.28674874     0.63000
F1115       F  0.25626215  0.07298884  0.11562100    -0.22200
F1116       F  0.18149905  0.05442556  0.10088649    -0.19500
F1117       F  0.23948201  0.00945889  0.07257066    -0.19200
F1118       F  0.29273720  0.98657202  0.31099576    -0.19300
F1119       F  0.30439683  0.91665020  0.27785362    -0.19600
F1120       F  0.23695530  0.93140537  0.31484161    -0.22300
C1121       C  0.43823665  0.72672986  0.11328871    -0.05100
C1122       C  0.43216518  0.75339597  0.07208188     0.00800
C1123       C  0.46471878  0.74918909  0.03446737    -0.07700
C1124       C  0.50687304  0.72675163  0.04366561    -0.05100
C1125       C  0.51568541  0.70754030  0.08817342     0.00800
C1126       C  0.47970447  0.70327998  0.12190852    -0.07600
C1127       C  0.48508933  0.67507154  0.16723712     0.62700
H1128       H  0.41278206  0.72853372  0.14147247     0.13400
H1129       H  0.53338076  0.72481914  0.01630812     0.13400
C1130       C  0.45782948  0.76953531  0.98540088     0.63000
F1131       F  0.44352427  0.67270208  0.19181467    -0.22200
F1132       F  0.51815525  0.69537003  0.19610363    -0.19500
F1133       F  0.49832262  0.62986186  0.15713967    -0.19200
F1134       F  0.49396310  0.79982430  0.97495959    -0.19300
F1135       F  0.41635020  0.79354949  0.98083494    -0.19600
F1136       F  0.45810573  0.73372385  0.95279365    -0.22300
C1137       C  0.74853819  0.50166360  0.52515018    -0.05100
C1138       C  0.74908480  0.54681407  0.54477236     0.00800
C1139       C  0.73151993  0.58500340  0.51852550    -0.07700
C1140       C  0.71850642  0.57732567  0.47210792    -0.05100
C1141       C  0.72259978  0.53345972  0.45052637     0.00800
C1142       C  0.73596027  0.49436396  0.47770988    -0.07600
C1143       C  0.73865857  0.44602105  0.45623374     0.62700
H1144       H  0.76258293  0.47310532  0.54587897     0.13400
H1145       H  0.70539377  0.60637764  0.45176227     0.13400
C1146       C  0.73044341  0.63478068  0.53725004     0.63000
F1147       F  0.76221189  0.41517989  0.48542407    -0.22200
F1148       F  0.76201046  0.44785436  0.41342739    -0.19500
F1149       F  0.69424371  0.42883817  0.44895420    -0.19200
F1150       F  0.77533655  0.65036648  0.54539303    -0.19300
F1151       F  0.70496744  0.63638611  0.57863621    -0.19600
F1152       F  0.70979917  0.66555450  0.50575884    -0.22300
C1153       C  0.76608928  0.07658705  0.57201033    -0.05100
C1154       C  0.75248243  0.12230609  0.58247837     0.00800
C1155       C  0.77299830  0.16096631  0.55912510    -0.07700
C1156       C  0.80429825  0.15185529  0.52277996    -0.05100
C1157       C  0.81206377  0.10630251  0.50779506     0.00800
C1158       C  0.79424535  0.06765298  0.53288447    -0.07600
C1159       C  0.80040686  0.01799544  0.51524931     0.62700
H1160       H  0.74940780  0.04805378  0.59067922     0.13400
H1161       H  0.81951929  0.18021331  0.50261882     0.13400
C1162       C  0.75847504  0.21117661  0.56865066     0.63000
F1163       F  0.77939895  0.98585844  0.54504447    -0.22200
F1164       F  0.84718143  0.00690267  0.51215735    -0.19500
F1165       F  0.78048367  0.01379149  0.47095722    -0.19200
F1166       F  0.76931616  0.22318347  0.61457806    -0.19300
F1167       F  0.71101254  0.21637959  0.56141666    -0.19600
F1168       F  0.78113459  0.24233747  0.53905339    -0.22300
C1169       C  0.94554707  0.27108877  0.09871806    -0.05100
C1170       C  0.93947885  0.24508363  0.05720826     0.00800
C1171       C  0.97308740  0.24826513  0.02083421    -0.07700
C1172       C  0.01649003  0.26760142  0.03162238    -0.05100
C1173       C  0.02532221  0.28566270  0.07677475     0.00800
C1174       C  0.98850696  0.29061399  0.10978822    -0.07600
C1175       C  0.99468469  0.31486525  0.15724698     0.62700
H1176       H  0.91876580  0.27048788  0.12570957     0.13400
H1177       H  0.04344924  0.26906704  0.00468629     0.13400
C1178       C  0.96422497  0.23111663  0.97113041     0.63000
F1179       F  0.95310411  0.31797727  0.18210554    -0.22200
F1180       F  0.01105645  0.35971571  0.15070018    -0.19500
F1181       F  0.02599606  0.29005873  0.18464405    -0.19200
F1182       F  0.96915241  0.26797520  0.93985472    -0.19300
F1183       F  0.91967773  0.21325587  0.96609894    -0.19600
F1184       F  0.99626176  0.19690589  0.95960905    -0.22300
loop_ 
_geom_bond_atom_site_label_1 
_geom_bond_atom_site_label_2 
_geom_bond_distance 
_geom_bond_site_symmetry_2 
_ccdc_geom_bond_type 
Zn1           O5   2.059   1_454  S
Zn1           O6   2.065       .  S
Zn1          O10   2.134   1_554  S
Zn1          O17   2.157   1_455  S
Zn2           O5   1.945   1_444  S
Zn2           O7   2.077   1_554  S
Zn2           O9   2.116   1_545  S
Zn2          O13   2.098   1_455  S
Zn3           O5   1.992   1_445  S
Zn3           O8   2.062   1_545  S
Zn3          O11   2.067       .  S
Zn3          O14   2.119   1_455  S
Zn4           O5   1.972   1_544  S
Zn4          O12   2.103   1_554  S
Zn4          O15   1.976       .  S
Zn4          O16   1.969   1_545  S
O6           C18   1.276       .  A
O7           C19   1.285       .  A
O8           C20   1.288       .  A
O9           C18   1.292       .  A
O10          C20   1.287       .  A
O11          C19   1.271       .  A
O12          C21   1.277       .  A
O13          C22   1.285       .  A
O14          C21   1.290       .  A
O15          C22   1.260       .  A
O16          C23   1.275       .  A
O17          C23   1.286       .  A
C18         C151   1.513       .  S
C19         C337   1.509       .  S
C20         C662   1.521       .  S
C21         C682   1.525       .  S
C22          C33   1.481       .  S
C23         C460   1.509       .  S
C24         C740   1.517       .  S
C24          C25   1.384       .  A
C24          C29   1.448       .  A
C25          C26   1.375       .  A
C25          H30   1.088       .  S
C26        C1173   1.453       .  S
C26          C27   1.394       .  A
C27          C28   1.406       .  A
C27          H31   1.083       .  S
C28         C203   1.531       .  S
C28          C29   1.457       .  A
C29          H32   1.082       .  S
C33          C34   1.393       .  A
C33          C38   1.420       .  A
C34          C35   1.398       .  A
C34          H39   1.084       .  S
C35        C1170   1.468       .  S
C35          C36   1.396       .  A
C36          C37   1.394       .  A
C36          H40   1.086       .  S
C37          C77   1.480       .  S
C37          C38   1.421       .  A
C38          H41   1.083       .  S
C42          C81   1.509       .  S
C42          C43   1.393       .  A
C42          C47   1.445       .  A
C43          C44   1.392       .  A
C43          H48   1.085       .  S
C44        C1157   1.440       .  S
C44          C45   1.376       .  A
C45          C46   1.383       .  A
C45          H49   1.087       .  S
C46         C563   1.491       .  S
C46          C47   1.439       .  A
C47          H50   1.082       .  S
C51         C654   1.522       .  S
C51          C52   1.386       .  A
C51          C56   1.459       .  A
C52          C53   1.378       .  A
C52          H57   1.085       .  S
C53        C1154   1.448       .  S
C53          C54   1.393       .  A
C54          C55   1.390       .  A
C54          H58   1.085       .  S
C55         C244   1.536       .  S
C55          C56   1.461       .  A
C56          H59   1.082       .  S
Zn60         O64   1.999       .  S
Zn60         O65   2.050       .  S
Zn60         O69   2.027       .  S
Zn60         O76   2.018       .  S
Zn61         O64   2.000       .  S
Zn61         O66   2.080       .  S
Zn61         O68   2.037       .  S
Zn61         O72   2.001       .  S
Zn62         O64   1.981       .  S
Zn62         O67   2.035       .  S
Zn62         O70   2.055       .  S
Zn62         O73   1.984       .  S
Zn63         O64   1.952       .  S
Zn63         O71   2.131       .  S
Zn63         O74   2.157       .  S
Zn63         O75   2.150       .  S
O65          C77   1.279       .  A
O66          C78   1.282       .  A
O67          C79   1.278       .  A
O68          C77   1.277       .  A
O69          C79   1.272       .  A
O70          C78   1.275       .  A
O71          C80   1.293       .  A
O72          C81   1.265       .  A
O73          C80   1.266       .  A
O74          C81   1.296       .  A
O75          C82   1.295       .  A
O76          C82   1.267       .  A
C78         C406   1.492       .  S
C79         C621   1.485       .  S
C80         C265   1.497       .  S
C82         C428   1.501       .  S
C83         C716   1.490       .  S
C83          C84   1.401       .  A
C83          C88   1.430       .  A
C84          C85   1.397       .  A
C84          H89   1.083       .  S
C85        C1138   1.461       .  S
C85          C86   1.387       .  A
C86          C87   1.384       .  A
C86          H90   1.086       .  S
C87         C121   1.485       .  S
C87          C88   1.425       .  A
C88          H91   1.083       .  S
C92         C500   1.488       .  S
C92          C93   1.430       .  A
C92          C97   1.408       .  A
C93          C94   1.422       .  A
C93          H98   1.083       .  S
C94         C319   1.475       .  S
C94          C95   1.394       .  A
C95          C96   1.381       .  A
C95          H99   1.085       .  S
C96        C1141   1.472       .  S
C96          C97   1.404       .  A
C97         H100   1.084       .  S
Zn101       O105   2.006   1_655  S
Zn101       O106   2.085   1_655  S
Zn101       O110   2.017       .  S
Zn101       O117   2.038       .  S
Zn102       O105   1.987       .  S
Zn102       O107   2.038       .  S
Zn102       O109   2.007       .  S
Zn102       O113   1.977       .  S
Zn103       O105   1.912   1_655  S
Zn103       O108   2.113       .  S
Zn103       O111   2.139   1_655  S
Zn103       O114   2.093       .  S
Zn104       O105   1.967   1_655  S
Zn104       O112   1.999       .  S
Zn104       O115   2.043   1_655  S
Zn104       O116   2.116       .  S
O106        C118   1.276       .  A
O107        C119   1.266       .  A
O108        C120   1.292       .  A
O109        C118   1.274       .  A
O110        C120   1.262       .  A
O111        C119   1.292       .  A
O112        C121   1.268       .  A
O113        C122   1.262       .  A
O114        C121   1.292       .  A
O115        C122   1.284       .  A
O116        C123   1.281       .  A
O117        C123   1.285       .  A
C118        C256   1.488       .  S
C119        C442   1.515       .  S
C120        C408   1.499       .  S
C122        C351   1.460       .  S
C123        C610   1.517       .  S
C124        C404   1.505       .  S
C124        C125   1.389       .  A
C124        C129   1.439       .  A
C125        C126   1.383       .  A
C125        H130   1.083       .  S
C126       C1122   1.465       .  S
C126        C127   1.390       .  A
C127        C128   1.392       .  A
C127        H131   1.086       .  S
C128        C182   1.496       .  S
C128        C129   1.441       .  A
C129        H132   1.082       .  S
C133        C537   1.491       .  S
C133        C134   1.431       .  A
C133        C138   1.385       .  A
C134        C135   1.444       .  A
C134        H139   1.082       .  S
C135        C499   1.502       .  S
C135        C136   1.400       .  A
C136        C137   1.387       .  A
C136        H140   1.084       .  S
C137       C1125   1.441       .  S
C137        C138   1.369       .  A
C138        H141   1.088       .  S
C142        C560   1.521       .  S
C142        C143   1.445       .  A
C142        C147   1.413       .  A
C143        C144   1.426       .  A
C143        H148   1.082       .  S
C144        C204   1.499       .  S
C144        C145   1.382       .  A
C145        C146   1.384       .  A
C145        H149   1.087       .  S
C146       C1106   1.476       .  S
C146        C147   1.411       .  A
C147        H150   1.082   1_545  S
C151        C152   1.435       .  A
C151        C156   1.406       .  A
C152        C153   1.429       .  A
C152        H157   1.082       .  S
C153        C177   1.494       .  S
C153        C154   1.388       .  A
C154        C155   1.397       .  A
C154        H158   1.081       .  S
C155       C1109   1.508       .  S
C155        C156   1.409       .  A
C156        H159   1.077       .  S
Zn160       O164   1.935       .  S
Zn160       O165   2.034       .  S
Zn160       O169   1.956       .  S
Zn160       O176   2.064       .  S
Zn161       O164   1.936       .  S
Zn161       O166   2.174       .  S
Zn161       O168   2.136       .  S
Zn161       O172   2.133       .  S
Zn162       O164   2.027       .  S
Zn162       O167   2.152       .  S
Zn162       O170   2.006       .  S
Zn162       O173   2.085       .  S
Zn163       O164   1.956       .  S
Zn163       O171   2.091       .  S
Zn163       O174   1.997       .  S
Zn163       O175   2.091       .  S
O165        C177   1.267       .  A
O166        C178   1.296       .  A
O167        C179   1.276       .  A
O168        C177   1.291       .  A
O169        C179   1.265       .  A
O170        C178   1.267       .  A
O171        C180   1.288       .  A
O172        C181   1.297       .  A
O173        C180   1.283       .  A
O174        C181   1.270       .  A
O175        C182   1.282       .  A
O176        C182   1.273       .  A
C178        C446   1.501       .  S
C179        C760   1.504       .  S
C180        C505   1.508       .  S
C181        C567   1.490       .  S
Zn183       O187   2.009       .  S
Zn183       O188   2.051       .  S
Zn183       O192   2.074       .  S
Zn183       O199   2.008       .  S
Zn184       O187   2.013       .  S
Zn184       O189   2.068       .  S
Zn184       O191   2.080       .  S
Zn184       O195   2.053       .  S
Zn185       O187   1.979       .  S
Zn185       O190   2.058       .  S
Zn185       O193   2.008       .  S
Zn185       O196   2.070       .  S
Zn186       O187   1.920       .  S
Zn186       O194   2.142       .  S
Zn186       O197   2.078       .  S
Zn186       O198   2.025       .  S
O188        C200   1.277       .  A
O189        C201   1.281       .  A
O190        C202   1.279       .  A
O191        C200   1.283       .  A
O192        C202   1.279       .  A
O193        C201   1.280       .  A
O194        C203   1.293       .  A
O195        C204   1.272       .  A
O196        C203   1.271       .  A
O197        C204   1.288       .  A
O198        C205   1.283       .  A
O199        C205   1.266       .  A
C200        C274   1.491       .  S
C201        C258   1.488       .  S
C202        C510   1.493       .  S
C205        C324   1.472       .  S
C206        C243   1.503       .  S
C206        C207   1.409       .  A
C206        C211   1.425       .  A
C207        C208   1.393       .  A
C207        H212   1.083       .  S
C208       C1093   1.494       .  S
C208        C209   1.389       .  A
C209        C210   1.399       .  A
C209        H213   1.080       .  S
C210        C718   1.482       .  S
C210        C211   1.432       .  A
C211        H214   1.082       .  S
C215        C320   1.487       .  S
C215        C216   1.426       .  A
C215        C220   1.380       .  A
C216        C217   1.434       .  A
C216        H221   1.082       .  S
C217        C796   1.524       .  S
C217        C218   1.424       .  A
C218        C219   1.416       .  A
C218        H222   1.082       .  S
C219       C1090   1.481       .  S
C219        C220   1.379       .  A
C220        H223   1.087       .  S
Zn224       O228   1.977   1_565  S
Zn224       O229   2.053       .  S
Zn224       O233   1.991       .  S
Zn224       O240   2.034       .  S
Zn225       O228   1.986       .  S
Zn225       O230   2.012       .  S
Zn225       O232   2.071   1_545  S
Zn225       O236   1.984       .  S
Zn226       O228   2.049       .  S
Zn226       O231   2.136   1_545  S
Zn226       O234   2.086       .  S
Zn226       O237   2.070       .  S
Zn227       O228   1.956       .  S
Zn227       O235   2.201       .  S
Zn227       O238   2.142       .  S
Zn227       O239   2.201       .  S
O229        C241   1.274       .  A
O230        C242   1.277       .  A
O231        C243   1.281       .  A
O232        C241   1.273       .  A
O233        C243   1.271       .  A
O234        C242   1.284       .  A
O235        C244   1.301       .  A
O236        C245   1.266       .  A
O237        C244   1.271       .  A
O238        C245   1.296       .  A
O239        C246   1.303   1_545  A
O240        C246   1.273       .  A
C241        C565   1.497       .  S
C242        C746   1.483       .  S
C245        C276   1.493       .  S
C246        C433   1.530       .  S
C247        C323   1.475       .  S
C247        C248   1.375       .  A
C247        C252   1.413       .  A
C248        C249   1.388       .  A
C248        H253   1.085       .  S
C249       C1074   1.490       .  S
C249        C250   1.410       .  A
C250        C251   1.417       .  A
C250        H254   1.080       .  S
C251        C380   1.501       .  S
C251        C252   1.430       .  A
C252        H255   1.083       .  S
C256        C257   1.423       .  A
C256        C261   1.406       .  A
C257        C258   1.429       .  A
C257        H262   1.082       .  S
C258        C259   1.410       .  A
C259        C260   1.394       .  A
C259        H263   1.080       .  S
C260       C1077   1.512       .  S
C260        C261   1.388       .  A
C261        H264   1.080       .  S
C265        C266   1.450       .  A
C265        C270   1.411       .  A
C266        C267   1.433       .  A
C266        H271   1.082       .  S
C267        C322   1.525       .  S
C267        C268   1.409       .  A
C268        C269   1.388       .  A
C268        H272   1.081       .  S
C269       C1058   1.482       .  S
C269        C270   1.400       .  A
C270        H273   1.083       .  S
C274        C275   1.432       .  A
C274        C279   1.400       .  A
C275        C276   1.427       .  A
C275        H280   1.082       .  S
C276        C277   1.383       .  A
C277        C278   1.398       .  A
C277        H281   1.085       .  S
C278       C1061   1.466       .  S
C278        C279   1.395       .  A
C279        H282   1.083       .  S
C283        C536   1.483       .  S
C283        C284   1.397       .  A
C283        C288   1.421       .  A
C284        C285   1.390       .  A
C284        H289   1.075       .  S
C285       C1045   1.511       .  S
C285        C286   1.402       .  A
C286        C287   1.411       .  A
C286        H290   1.079       .  S
C287        C715   1.500       .  S
C287        C288   1.429       .  A
C288        H291   1.082       .  S
C292        C655   1.519       .  S
C292        C293   1.425       .  A
C292        C297   1.430       .  A
C293        C294   1.421       .  A
C293        H298   1.082       .  S
C294       C1042   1.488       .  S
C294        C295   1.384       .  A
C295        C296   1.377       .  A
C295        H299   1.087       .  S
C296        C321   1.473       .  S
C296        C297   1.414       .  A
C297        H300   1.083       .  S
Zn301       O305   1.954       .  S
Zn301       O306   2.089       .  S
Zn301       O310   2.013       .  S
Zn301       O317   1.997       .  S
Zn302       O305   1.992       .  S
Zn302       O307   1.982       .  S
Zn302       O309   2.077       .  S
Zn302       O313   2.171       .  S
Zn303       O305   1.918       .  S
Zn303       O308   2.065       .  S
Zn303       O311   2.100       .  S
Zn303       O314   2.068       .  S
Zn304       O305   1.951       .  S
Zn304       O312   1.980       .  S
Zn304       O315   1.973       .  S
Zn304       O316   2.049       .  S
O306        C318   1.278       .  A
O307        C319   1.264       .  A
O308        C320   1.288       .  A
O309        C318   1.291       .  A
O310        C320   1.265       .  A
O311        C319   1.286       .  A
O312        C321   1.265       .  A
O313        C322   1.286       .  A
O314        C321   1.284       .  A
O315        C322   1.273       .  A
O316        C323   1.275       .  A
O317        C323   1.281       .  A
C318        C501   1.515       .  S
C324        C325   1.384       .  A
C324        C329   1.413       .  A
C325        C326   1.376       .  A
C325        H330   1.088       .  S
C326       C1026   1.477       .  S
C326        C327   1.417       .  A
C327        C328   1.420       .  A
C327        H331   1.081   1_554  S
C328        C401   1.509       .  S
C328        C329   1.428       .  A
C329        H332   1.083       .  S
C333        C377   1.521       .  S
C333        C334   1.406       .  A
C333        C338   1.437       .  A
C334        C335   1.396       .  A
C334        H339   1.080       .  S
C335       C1029   1.493   1_556  S
C335        C336   1.389       .  A
C336        C337   1.400       .  A
C336        H340   1.080       .  S
C337        C338   1.440       .  A
C338        H341   1.081       .  S
C342        C736   1.509       .  S
C342        C343   1.418       .  A
C342        C347   1.429       .  A
C343        C344   1.398       .  A
C343        H348   1.084       .  S
C344       C1010   1.516       .  S
C344        C345   1.393       .  A
C345        C346   1.401       .  A
C345        H349   1.082       .  S
C346        C379   1.488       .  S
C346        C347   1.438       .  A
C347        H350   1.082       .  S
C351        C352   1.407       .  A
C351        C356   1.373       .  A
C352        C353   1.420       .  A
C352        H357   1.083       .  S
C353        C795   1.492       .  S
C353        C354   1.424       .  A
C354        C355   1.422       .  A
C354        H358   1.082       .  S
C355       C1013   1.497       .  S
C355        C356   1.382       .  A
C356        H359   1.085       .  S
Zn360       O364   1.914       .  S
Zn360       O365   1.989       .  S
Zn360       O369   1.962       .  S
Zn360       O376   1.929       .  S
Zn361       O364   1.998       .  S
Zn361       O366   2.068       .  S
Zn361       O368   2.130       .  S
Zn361       O372   2.045       .  S
Zn362       O364   1.943       .  S
Zn362       O367   2.129       .  S
Zn362       O370   2.141       .  S
Zn362       O373   2.111       .  S
Zn363       O364   2.021       .  S
Zn363       O371   2.018       .  S
Zn363       O374   2.066       .  S
Zn363       O375   2.141       .  S
O365        C377   1.274       .  A
O366        C378   1.272       .  A
O367        C379   1.291       .  A
O368        C377   1.277       .  A
O369        C379   1.256       .  A
O370        C378   1.291       .  A
O371        C380   1.276       .  A
O372        C381   1.283       .  A
O373        C380   1.290       .  A
O374        C381   1.277       .  A
O375        C382   1.282       .  A
O376        C382   1.266       .  A
C378        C601   1.516       .  S
C381        C742   1.483       .  S
C382        C587   1.502       .  S
Zn383       O387   1.930       .  S
Zn383       O388   2.002   1_556  S
Zn383       O392   1.913       .  S
Zn383       O399   1.932   1_545  S
Zn384       O387   2.035   1_554  S
Zn384       O389   2.035       .  S
Zn384       O391   2.133       .  S
Zn384       O395   2.097   1_545  S
Zn385       O387   1.973       .  S
Zn385       O390   2.119       .  S
Zn385       O393   2.116       .  S
Zn385       O396   2.170       .  S
Zn386       O387   2.002   1_565  S
Zn386       O394   2.024       .  S
Zn386       O397   2.043   1_556  S
Zn386       O398   2.198       .  S
O388        C400   1.273       .  A
O389        C401   1.274       .  A
O390        C402   1.290       .  A
O391        C400   1.283       .  A
O392        C402   1.255       .  A
O393        C401   1.285   1_556  A
O394        C403   1.272       .  A
O395        C404   1.282       .  A
O396        C403   1.295   1_545  A
O397        C404   1.291       .  A
O398        C405   1.282       .  A
O399        C405   1.264       .  A
C400        C424   1.502       .  S
C402        C592   1.466       .  S
C403        C753   1.523       .  S
C405        C469   1.531       .  S
C406        C407   1.446       .  A
C406        C411   1.392       .  A
C407        C408   1.442       .  A
C407        H412   1.082       .  S
C408        C409   1.384       .  A
C409        C410   1.374       .  A
C409        H413   1.088       .  S
C410        C997   1.438       .  S
C410        C411   1.379       .  A
C411        H414   1.086       .  S
C415        C498   1.493       .  S
C415        C416   1.438       .  A
C415        C420   1.391       .  A
C416        C417   1.434       .  A
C416        H421   1.082       .  S
C417        C739   1.498       .  S
C417        C418   1.386       .  A
C418        C419   1.376       .  A
C418        H422   1.083       .  S
C419        C994   1.458       .  S
C419        C420   1.393       .  A
C420        H423   1.085       .  S
C424        C425   1.398       .  A
C424        C429   1.440       .  A
C425        C426   1.391       .  A
C425        H430   1.086   1_545  S
C426        C981   1.472   1_545  S
C426        C427   1.395       .  A
C427        C428   1.386       .  A
C427        H431   1.083       .  S
C428        C429   1.438       .  A
C429        H432   1.082       .  S
C433        C434   1.410       .  A
C433        C438   1.457       .  A
C434        C435   1.402       .  A
C434        H439   1.083   1_565  S
C435        C978   1.459       .  S
C435        C436   1.377       .  A
C436        C437   1.377       .  A
C436        H440   1.089       .  S
C437        C495   1.513       .  S
C437        C438   1.444       .  A
C438        H441   1.082       .  S
C442        C443   1.396       .  A
C442        C447   1.441       .  A
C443        C444   1.406       .  A
C443        H448   1.083       .  S
C444        C962   1.503       .  S
C444        C445   1.398       .  A
C445        C446   1.391       .  A
C445        H449   1.081       .  S
C446        C447   1.437       .  A
C447        H450   1.082       .  S
C451        C562   1.505       .  S
C451        C452   1.414       .  A
C451        C456   1.432       .  A
C452        C453   1.413       .  A
C452        H457   1.083   1_655  S
C453        C965   1.464       .  S
C453        C454   1.378       .  A
C454        C455   1.371       .  A
C454        H458   1.087       .  S
C455        C497   1.460       .  S
C455        C456   1.411       .  A
C456        H459   1.083       .  S
C460        C461   1.392       .  A
C460        C465   1.428       .  A
C461        C462   1.395       .  A
C461        H466   1.086       .  S
C462        C949   1.470       .  S
C462        C463   1.389       .  A
C463        C464   1.397       .  A
C463        H467   1.080       .  S
C464        C496   1.498       .  S
C464        C465   1.443       .  A
C465        H468   1.082       .  S
C469        C470   1.413       .  A
C469        C474   1.440       .  A
C470        C471   1.380       .  A
C470        H475   1.083   1_565  S
C471        C946   1.473       .  S
C471        C472   1.391       .  A
C472        C473   1.408       .  A
C472        H476   1.084       .  S
C473        C713   1.508       .  S
C473        C474   1.453       .  A
C474        H477   1.082       .  S
Zn478       O482   2.008       .  S
Zn478       O483   2.050       .  S
Zn478       O487   2.068       .  S
Zn478       O494   2.073       .  S
Zn479       O482   1.924       .  S
Zn479       O484   2.130       .  S
Zn479       O486   2.151       .  S
Zn479       O490   2.122       .  S
Zn480       O482   1.973       .  S
Zn480       O485   2.006       .  S
Zn480       O488   1.965       .  S
Zn480       O491   2.071       .  S
Zn481       O482   1.971       .  S
Zn481       O489   2.064       .  S
Zn481       O492   2.001       .  S
Zn481       O493   2.044       .  S
O483        C495   1.270       .  A
O484        C496   1.291       .  A
O485        C497   1.267       .  A
O486        C495   1.297       .  A
O487        C497   1.285       .  A
O488        C496   1.259       .  A
O489        C498   1.280       .  A
O490        C499   1.295       .  A
O491        C498   1.279       .  A
O492        C499   1.269       .  A
O493        C500   1.279       .  A
O494        C500   1.280       .  A
C501        C502   1.401       .  A
C501        C506   1.440       .  A
C502        C503   1.392       .  A
C502        H507   1.082       .  S
C503        C930   1.484       .  S
C503        C504   1.394       .  A
C504        C505   1.402       .  A
C504        H508   1.079       .  S
C505        C506   1.445       .  A
C506        H509   1.082       .  S
C510        C511   1.408       .  A
C510        C515   1.437       .  A
C511        C512   1.399       .  A
C511        H516   1.084       .  S
C512        C933   1.469       .  S
C512        C513   1.377       .  A
C513        C514   1.387       .  A
C513        H517   1.088       .  S
C514        C539   1.493       .  S
C514        C515   1.425       .  A
C515        H518   1.083       .  S
Zn519       O523   1.978       .  S
Zn519       O524   2.046       .  S
Zn519       O528   2.068       .  S
Zn519       O535   2.045       .  S
Zn520       O523   1.988   1_554  S
Zn520       O525   2.048       .  S
Zn520       O527   2.039   1_554  S
Zn520       O531   2.014       .  S
Zn521       O523   1.896   1_554  S
Zn521       O526   2.038       .  S
Zn521       O529   2.040       .  S
Zn521       O532   2.012       .  S
Zn522       O523   1.987   1_554  S
Zn522       O530   2.073       .  S
Zn522       O533   2.073       .  S
Zn522       O534   2.057   1_554  S
O524        C536   1.282       .  A
O525        C537   1.268       .  A
O526        C538   1.279   1_554  A
O527        C536   1.271       .  A
O528        C538   1.272       .  A
O529        C537   1.282       .  A
O530        C539   1.272       .  A
O531        C540   1.279       .  A
O532        C539   1.280       .  A
O533        C540   1.275       .  A
O534        C541   1.287       .  A
O535        C541   1.274       .  A
C538        C771   1.501       .  S
C540        C619   1.493       .  S
C541        C583   1.486       .  S
Zn542       O546   2.004       .  S
Zn542       O547   2.086   1_565  S
Zn542       O551   2.020       .  S
Zn542       O558   2.087   1_455  S
Zn543       O546   2.004   1_545  S
Zn543       O548   2.004       .  S
Zn543       O550   2.093       .  S
Zn543       O554   2.105   1_455  S
Zn544       O546   1.998       .  S
Zn544       O549   2.158       .  S
Zn544       O552   2.190       .  S
Zn544       O555   2.159       .  S
Zn545       O546   1.981   1_655  S
Zn545       O553   1.956       .  S
Zn545       O556   2.037   1_565  S
Zn545       O557   2.042       .  S
O547        C559   1.283       .  A
O548        C560   1.271       .  A
O549        C561   1.295       .  A
O550        C559   1.283       .  A
O551        C561   1.271       .  A
O552        C560   1.300   1_565  A
O553        C562   1.264       .  A
O554        C563   1.285       .  A
O555        C562   1.290   1_455  A
O556        C563   1.273       .  A
O557        C564   1.276       .  A
O558        C564   1.281       .  A
C559        C605   1.501       .  S
C561        C578   1.516       .  S
C564        C691   1.491       .  S
C565        C566   1.432       .  A
C565        C570   1.398       .  A
C566        C567   1.433       .  A
C566        H571   1.082       .  S
C567        C568   1.382       .  A
C568        C569   1.395       .  A
C568        H572   1.084       .  S
C569        C914   1.474       .  S
C569        C570   1.393       .  A
C570        H573   1.078       .  S
C574        C797   1.495       .  S
C574        C575   1.393       .  A
C574        C579   1.428       .  A
C575        C576   1.387       .  A
C575        H580   1.087       .  S
C576        C917   1.468       .  S
C576        C577   1.408       .  A
C577        C578   1.409       .  A
C577        H581   1.084       .  S
C578        C579   1.439       .  A
C579        H582   1.083       .  S
C583        C584   1.397       .  A
C583        C588   1.430       .  A
C584        C585   1.389       .  A
C584        H589   1.084       .  S
C585        C901   1.494       .  S
C585        C586   1.384       .  A
C586        C587   1.412       .  A
C586        H590   1.080       .  S
C587        C588   1.430       .  A
C588        H591   1.082       .  S
C592        C593   1.386       .  A
C592        C597   1.406       .  A
C593        C594   1.384       .  A
C593        H598   1.089       .  S
C594        C898   1.466       .  S
C594        C595   1.413       .  A
C595        C596   1.412       .  A
C595        H599   1.082       .  S
C596        C656   1.496       .  S
C596        C597   1.430       .  A
C597        H600   1.083       .  S
C601        C602   1.399       .  A
C601        C606   1.447       .  A
C602        C603   1.396       .  A
C602        H607   1.085       .  S
C603        C882   1.454   1_455  S
C603        C604   1.379       .  A
C604        C605   1.383       .  A
C604        H608   1.086       .  S
C605        C606   1.444       .  A
C606        H609   1.082       .  S
C610        C611   1.439       .  A
C610        C615   1.404       .  A
C611        C612   1.438       .  A
C611        H616   1.082       .  S
C612        C658   1.483       .  S
C612        C613   1.385       .  A
C613        C614   1.373       .  A
C613        H617   1.088       .  S
C614        C885   1.451       .  S
C614        C615   1.393       .  A
C615        H618   1.084       .  S
C619        C620   1.413       .  A
C619        C624   1.395       .  A
C620        C621   1.424       .  A
C620        H625   1.083       .  S
C621        C622   1.405       .  A
C622        C623   1.399       .  A
C622        H626   1.081       .  S
C623        C866   1.503       .  S
C623        C624   1.403       .  A
C624        H627   1.078       .  S
C628        C741   1.491       .  S
C628        C629   1.383       .  A
C628        C633   1.428       .  A
C629        C630   1.381       .  A
C629        H634   1.088   1_556  S
C630        C869   1.468   1_556  S
C630        C631   1.409       .  A
C631        C632   1.415       .  A
C631        H635   1.083       .  S
C632        C657   1.521       .  S
C632        C633   1.442       .  A
C633        H636   1.082       .  S
Zn637       O641   1.986       .  S
Zn637       O642   2.098       .  S
Zn637       O646   1.951       .  S
Zn637       O653   2.058       .  S
Zn638       O641   2.007       .  S
Zn638       O643   2.044       .  S
Zn638       O645   2.140       .  S
Zn638       O649   2.078       .  S
Zn639       O641   2.014       .  S
Zn639       O644   2.141       .  S
Zn639       O647   2.138       .  S
Zn639       O650   2.161       .  S
Zn640       O641   2.028       .  S
Zn640       O648   2.042       .  S
Zn640       O651   2.049       .  S
Zn640       O652   2.140       .  S
O642        C654   1.279       .  A
O643        C655   1.277       .  A
O644        C656   1.291       .  A
O645        C654   1.287       .  A
O646        C656   1.267       .  A
O647        C655   1.289       .  A
O648        C657   1.274       .  A
O649        C658   1.283       .  A
O650        C657   1.294       .  A
O651        C658   1.280       .  A
O652        C659   1.284       .  A
O653        C659   1.282       .  A
C659        C678   1.512       .  S
C660        C800   1.508       .  S
C660        C661   1.440       .  A
C660        C665   1.400       .  A
C661        C662   1.444       .  A
C661        H666   1.082       .  S
C662        C663   1.406       .  A
C663        C664   1.400       .  A
C663        H667   1.077       .  S
C664        C850   1.511       .  S
C664        C665   1.390       .  A
C665        H668   1.084       .  S
C669        C738   1.501       .  S
C669        C670   1.421       .  A
C669        C674   1.428       .  A
C670        C671   1.417       .  A
C670        H675   1.083   1_655  S
C671        C853   1.484       .  S
C671        C672   1.378       .  A
C672        C673   1.382       .  A
C672        H676   1.088       .  S
C673        C714   1.477       .  S
C673        C674   1.415       .  A
C674        H677   1.083       .  S
C678        C679   1.387       .  A
C678        C683   1.451       .  A
C679        C680   1.372       .  A
C679        H684   1.087       .  S
C680        C834   1.450       .  S
C680        C681   1.392       .  A
C681        C682   1.398       .  A
C681        H685   1.085       .  S
C682        C683   1.455       .  A
C683        H686   1.082       .  S
C687        C717   1.507       .  S
C687        C688   1.395       .  A
C687        C692   1.434       .  A
C688        C689   1.399       .  A
C688        H693   1.084       .  S
C689        C837   1.466   1_565  S
C689        C690   1.384       .  A
C690        C691   1.391       .  A
C690        H694   1.079       .  S
C691        C692   1.433       .  A
C692        H695   1.082       .  S
Zn696       O700   1.979       .  S
Zn696       O701   2.031       .  S
Zn696       O705   2.036       .  S
Zn696       O712   2.041       .  S
Zn697       O700   1.923       .  S
Zn697       O702   2.044       .  S
Zn697       O704   2.101       .  S
Zn697       O708   2.111       .  S
Zn698       O700   2.008       .  S
Zn698       O703   2.069       .  S
Zn698       O706   2.015       .  S
Zn698       O709   2.074       .  S
Zn699       O700   1.987       .  S
Zn699       O707   2.052       .  S
Zn699       O710   2.035       .  S
Zn699       O711   2.037       .  S
O701        C713   1.266       .  A
O702        C714   1.287       .  A
O703        C715   1.279       .  A
O704        C713   1.288       .  A
O705        C715   1.283       .  A
O706        C714   1.271       .  A
O707        C716   1.277       .  A
O708        C717   1.288       .  A
O709        C716   1.280       .  A
O710        C717   1.267       .  A
O711        C718   1.281       .  A
O712        C718   1.277       .  A
Zn719       O723   1.972       .  S
Zn719       O724   1.988       .  S
Zn719       O728   2.072   1_455  S
Zn719       O735   2.049   1_455  S
Zn720       O723   2.045       .  S
Zn720       O725   2.101   1_556  S
Zn720       O727   2.139       .  S
Zn720       O731   2.087   1_556  S
Zn721       O723   2.001       .  S
Zn721       O726   2.083   1_455  S
Zn721       O729   2.026   1_556  S
Zn721       O732   2.058   1_456  S
Zn722       O723   1.926   1_654  S
Zn722       O730   2.032       .  S
Zn722       O733   2.098   1_655  S
Zn722       O734   2.063   1_554  S
O724        C736   1.277       .  A
O725        C737   1.289       .  A
O726        C738   1.280       .  A
O727        C736   1.288       .  A
O728        C738   1.279       .  A
O729        C737   1.278       .  A
O730        C739   1.283       .  A
O731        C740   1.271       .  A
O732        C739   1.270       .  A
O733        C740   1.288       .  A
O734        C741   1.282       .  A
O735        C741   1.271       .  A
C737        C764   1.484       .  S
C742        C743   1.395       .  A
C742        C747   1.418       .  A
C743        C744   1.386       .  A
C743        H748   1.070       .  S
C744        C818   1.498       .  S
C744        C745   1.408       .  A
C745        C746   1.403       .  A
C745        H749   1.077   1_545  S
C746        C747   1.425       .  A
C747        H750   1.082       .  S
C751        C798   1.491       .  S
C751        C752   1.425       .  A
C751        C756   1.379       .  A
C752        C753   1.442       .  A
C752        H757   1.082       .  S
C753        C754   1.416       .  A
C754        C755   1.416       .  A
C754        H758   1.083   1_565  S
C755        C821   1.480       .  S
C755        C756   1.379       .  A
C756        H759   1.087       .  S
C760        C761   1.407       .  A
C760        C765   1.425       .  A
C761        C762   1.385       .  A
C761        H766   1.084       .  S
C762        C802   1.474       .  S
C762        C763   1.401       .  A
C763        C764   1.404       .  A
C763        H767   1.084   1_554  S
C764        C765   1.434       .  A
C765        H768   1.082       .  S
C769        C799   1.511       .  S
C769        C770   1.428       .  A
C769        C774   1.394       .  A
C770        C771   1.437       .  A
C770        H775   1.082       .  S
C771        C772   1.411       .  A
C772        C773   1.390       .  A
C772        H776   1.081   1_556  S
C773        C805   1.480   1_556  S
C773        C774   1.389       .  A
C774        H777   1.082       .  S
Zn778       O782   1.988       .  S
Zn778       O783   2.039       .  S
Zn778       O787   2.040       .  S
Zn778       O794   2.052       .  S
Zn779       O782   2.020       .  S
Zn779       O784   2.111       .  S
Zn779       O786   2.099       .  S
Zn779       O790   2.111       .  S
Zn780       O782   1.963       .  S
Zn780       O785   2.098       .  S
Zn780       O788   2.104       .  S
Zn780       O791   2.077       .  S
Zn781       O782   1.978       .  S
Zn781       O789   2.035       .  S
Zn781       O792   2.000       .  S
Zn781       O793   2.107       .  S
O783        C795   1.276       .  A
O784        C796   1.285       .  A
O785        C797   1.285       .  A
O786        C795   1.285       .  A
O787        C797   1.273       .  A
O788        C796   1.286       .  A
O789        C798   1.267       .  A
O790        C799   1.282       .  A
O791        C798   1.287       .  A
O792        C799   1.284       .  A
O793        C800   1.277       .  A
O794        C800   1.280       .  A
C801        C802   1.409       .  A
C801        C806   1.389       .  A
C801        H808   1.080       .  S
C802        C803   1.406       .  A
C803        C804   1.408       .  A
C803        C810   1.514       .  S
C804        C805   1.417       .  A
C804        H809   1.076   1_554  S
C805        C806   1.405       .  A
C806        C807   1.513       .  S
C807        F811   1.381       .  S
C807        F812   1.382       .  S
C807        F813   1.385       .  S
C810        F814   1.383       .  S
C810        F815   1.383   1_554  S
C810        F816   1.385   1_554  S
C817        C818   1.419       .  A
C817        C822   1.402       .  A
C817        H824   1.076       .  S
C818        C819   1.401   1_545  A
C819        C820   1.393       .  A
C819        C826   1.510       .  S
C820        C821   1.418       .  A
C820        H825   1.083       .  S
C821        C822   1.406   1_565  A
C822        C823   1.514       .  S
C823        F827   1.382       .  S
C823        F828   1.383       .  S
C823        F829   1.382       .  S
C826        F830   1.380       .  S
C826        F831   1.384       .  S
C826        F832   1.383       .  S
C833        C834   1.390       .  A
C833        C838   1.389       .  A
C833        H840   1.082       .  S
C834        C835   1.411       .  A
C835        C836   1.398       .  A
C835        C842   1.520       .  S
C836        C837   1.405       .  A
C836        H841   1.084   1_545  S
C837        C838   1.423       .  A
C838        C839   1.523       .  S
C839        F843   1.381   1_545  S
C839        F844   1.384       .  S
C839        F845   1.382       .  S
C842        F846   1.382       .  S
C842        F847   1.382       .  S
C842        F848   1.385       .  S
C849        C850   1.415       .  A
C849        C854   1.418       .  A
C849        H856   1.082       .  S
C850        C851   1.405   1_455  A
C851        C852   1.397       .  A
C851        C858   1.509       .  S
C852        C853   1.419       .  A
C852        H857   1.084       .  S
C853        C854   1.419   1_655  A
C854        C855   1.513       .  S
C855        F859   1.382       .  S
C855        F860   1.384       .  S
C855        F861   1.381       .  S
C858        F862   1.384       .  S
C858        F863   1.384       .  S
C858        F864   1.379       .  S
C865        C866   1.409       .  A
C865        C870   1.417       .  A
C865        H872   1.082       .  S
C866        C867   1.407       .  A
C867        C868   1.393       .  A
C867        C874   1.504       .  S
C868        C869   1.409       .  A
C868        H873   1.085       .  S
C869        C870   1.419       .  A
C870        C871   1.511       .  S
C871        F875   1.385       .  S
C871        F876   1.382   1_554  S
C871        F877   1.382   1_554  S
C874        F878   1.381       .  S
C874        F879   1.384       .  S
C874        F880   1.383       .  S
C881        C882   1.406       .  A
C881        C886   1.388       .  A
C881        H888   1.085       .  S
C882        C883   1.409       .  A
C883        C884   1.392       .  A
C883        C890   1.517       .  S
C884        C885   1.404       .  A
C884        H889   1.085       .  S
C885        C886   1.405       .  A
C886        C887   1.515       .  S
C887        F891   1.384       .  S
C887        F892   1.383       .  S
C887        F893   1.383       .  S
C890        F894   1.383   1_655  S
C890        F895   1.383   1_655  S
C890        F896   1.383       .  S
C897        C898   1.410       .  A
C897        C902   1.384       .  A
C897        H904   1.084       .  S
C898        C899   1.415   1_556  A
C899        C900   1.417       .  A
C899        C906   1.511       .  S
C900        C901   1.414   1_554  A
C900        H905   1.083       .  S
C901        C902   1.410       .  A
C902        C903   1.514       .  S
C903        F907   1.380       .  S
C903        F908   1.382       .  S
C903        F909   1.381       .  S
C906        F910   1.382       .  S
C906        F911   1.383       .  S
C906        F912   1.383       .  S
C913        C914   1.414       .  A
C913        C918   1.408       .  A
C913        H920   1.083       .  S
C914        C915   1.403       .  A
C915        C916   1.387       .  A
C915        C922   1.514       .  S
C916        C917   1.409       .  A
C916        H921   1.080       .  S
C917        C918   1.407       .  A
C918        C919   1.513       .  S
C919        F923   1.383       .  S
C919        F924   1.385       .  S
C919        F925   1.383       .  S
C922        F926   1.383       .  S
C922        F927   1.381       .  S
C922        F928   1.384       .  S
C929        C930   1.409       .  A
C929        C934   1.399       .  A
C929        H936   1.081       .  S
C930        C931   1.409       .  A
C931        C932   1.399       .  A
C931        C938   1.511       .  S
C932        C933   1.409       .  A
C932        H937   1.085       .  S
C933        C934   1.419       .  A
C934        C935   1.523       .  S
C935        F939   1.385       .  S
C935        F940   1.382       .  S
C935        F941   1.383       .  S
C938        F942   1.384       .  S
C938        F943   1.384       .  S
C938        F944   1.382       .  S
C945        C946   1.408       .  A
C945        C950   1.387   1_556  A
C945        H952   1.079       .  S
C946        C947   1.407       .  A
C947        C948   1.406   1_556  A
C947        C954   1.514   1_565  S
C948        C949   1.413       .  A
C948        H953   1.084       .  S
C949        C950   1.407       .  A
C950        C951   1.520       .  S
C951        F955   1.385       .  S
C951        F956   1.382       .  S
C951        F957   1.382       .  S
C954        F958   1.383       .  S
C954        F959   1.382       .  S
C954        F960   1.385       .  S
C961        C962   1.401   1_655  A
C961        C966   1.401       .  A
C961        H968   1.082       .  S
C962        C963   1.413       .  A
C963        C964   1.404       .  A
C963        C970   1.509       .  S
C964        C965   1.408   1_455  A
C964        H969   1.084       .  S
C965        C966   1.432       .  A
C966        C967   1.523       .  S
C967        F971   1.381       .  S
C967        F972   1.383       .  S
C967        F973   1.383       .  S
C970        F974   1.381       .  S
C970        F975   1.384       .  S
C970        F976   1.382       .  S
C977        C978   1.409       .  A
C977        C982   1.399       .  A
C977        H984   1.085       .  S
C978        C979   1.426       .  A
C979        C980   1.396       .  A
C979        C986   1.525       .  S
C980        C981   1.398       .  A
C980        H985   1.082       .  S
C981        C982   1.407       .  A
C982        C983   1.508       .  S
C983        F987   1.383       .  S
C983        F988   1.383   1_565  S
C983        F989   1.385   1_565  S
C986        F990   1.382       .  S
C986        F991   1.379       .  S
C986        F992   1.385       .  S
C993        C994   1.399       .  A
C993        C998   1.385       .  A
C993       H1000   1.082       .  S
C994        C995   1.424       .  A
C995        C996   1.389       .  A
C995       C1002   1.518   1_655  S
C996        C997   1.391       .  A
C996       H1001   1.086       .  S
C997        C998   1.418       .  A
C998        C999   1.529       .  S
C999       F1003   1.379       .  S
C999       F1004   1.382       .  S
C999       F1005   1.385       .  S
C1002      F1006   1.374       .  S
C1002      F1007   1.384       .  S
C1002      F1008   1.383       .  S
C1009      C1010   1.407       .  A
C1009      C1014   1.417       .  A
C1009      H1016   1.082   1_455  S
C1010      C1011   1.406       .  A
C1011      C1012   1.400       .  A
C1011      C1018   1.510       .  S
C1012      C1013   1.422       .  A
C1012      H1017   1.083       .  S
C1013      C1014   1.436       .  A
C1014      C1015   1.519       .  S
C1015      F1019   1.385       .  S
C1015      F1020   1.382       .  S
C1015      F1021   1.380       .  S
C1018      F1022   1.385       .  S
C1018      F1023   1.380       .  S
C1018      F1024   1.380       .  S
C1025      C1026   1.413       .  A
C1025      C1030   1.396       .  A
C1025      H1032   1.083       .  S
C1026      C1027   1.435       .  A
C1027      C1028   1.411       .  A
C1027      C1034   1.514       .  S
C1028      C1029   1.402       .  A
C1028      H1033   1.084   1_554  S
C1029      C1030   1.399       .  A
C1030      C1031   1.508       .  S
C1031      F1035   1.384       .  S
C1031      F1036   1.379       .  S
C1031      F1037   1.385       .  S
C1034      F1038   1.384       .  S
C1034      F1039   1.382   1_554  S
C1034      F1040   1.374       .  S
C1041      C1042   1.416       .  A
C1041      C1046   1.396       .  A
C1041      H1048   1.084       .  S
C1042      C1043   1.421       .  A
C1043      C1044   1.418       .  A
C1043      C1050   1.514       .  S
C1044      C1045   1.414       .  A
C1044      H1049   1.079       .  S
C1045      C1046   1.402       .  A
C1046      C1047   1.504       .  S
C1047      F1051   1.382       .  S
C1047      F1052   1.382       .  S
C1047      F1053   1.385       .  S
C1050      F1054   1.380       .  S
C1050      F1055   1.383       .  S
C1050      F1056   1.384       .  S
C1057      C1058   1.410       .  A
C1057      C1062   1.384       .  A
C1057      H1064   1.078       .  S
C1058      C1059   1.414       .  A
C1059      C1060   1.411       .  A
C1059      C1066   1.517       .  S
C1060      C1061   1.411       .  A
C1060      H1065   1.083       .  S
C1061      C1062   1.408       .  A
C1062      C1063   1.520       .  S
C1063      F1067   1.386       .  S
C1063      F1068   1.382       .  S
C1063      F1069   1.383       .  S
C1066      F1070   1.381       .  S
C1066      F1071   1.383       .  S
C1066      F1072   1.384       .  S
C1073      C1074   1.415       .  A
C1073      C1078   1.391       .  A
C1073      H1080   1.084       .  S
C1074      C1075   1.430       .  A
C1075      C1076   1.413       .  A
C1075      C1082   1.521       .  S
C1076      C1077   1.412       .  A
C1076      H1081   1.082       .  S
C1077      C1078   1.404       .  A
C1078      C1079   1.511       .  S
C1079      F1083   1.384       .  S
C1079      F1084   1.384       .  S
C1079      F1085   1.383       .  S
C1082      F1086   1.383       .  S
C1082      F1087   1.382       .  S
C1082      F1088   1.384       .  S
C1089      C1090   1.403       .  A
C1089      C1094   1.397       .  A
C1089      H1096   1.083       .  S
C1090      C1091   1.433       .  A
C1091      C1092   1.405       .  A
C1091      C1098   1.509       .  S
C1092      C1093   1.400       .  A
C1092      H1097   1.084       .  S
C1093      C1094   1.412       .  A
C1094      C1095   1.514       .  S
C1095      F1099   1.385       .  S
C1095      F1100   1.379       .  S
C1095      F1101   1.380       .  S
C1098      F1102   1.374       .  S
C1098      F1103   1.383       .  S
C1098      F1104   1.383       .  S
C1105      C1106   1.416       .  A
C1105      C1110   1.392       .  A
C1105      H1112   1.084       .  S
C1106      C1107   1.419   1_545  A
C1107      C1108   1.415       .  A
C1107      C1114   1.513       .  S
C1108      C1109   1.411       .  A
C1108      H1113   1.082       .  S
C1109      C1110   1.397   1_565  A
C1110      C1111   1.502       .  S
C1111      F1115   1.382       .  S
C1111      F1116   1.378       .  S
C1111      F1117   1.384       .  S
C1114      F1118   1.383       .  S
C1114      F1119   1.384       .  S
C1114      F1120   1.381       .  S
C1121      C1122   1.403       .  A
C1121      C1126   1.387       .  A
C1121      H1128   1.081       .  S
C1122      C1123   1.419       .  A
C1123      C1124   1.393       .  A
C1123      C1130   1.517   1_554  S
C1124      C1125   1.396       .  A
C1124      H1129   1.085       .  S
C1125      C1126   1.409       .  A
C1126      C1127   1.522       .  S
C1127      F1131   1.380       .  S
C1127      F1132   1.382       .  S
C1127      F1133   1.382       .  S
C1130      F1134   1.384       .  S
C1130      F1135   1.379       .  S
C1130      F1136   1.383       .  S
C1137      C1138   1.411       .  A
C1137      C1142   1.406       .  A
C1137      H1144   1.084       .  S
C1138      C1139   1.414       .  A
C1139      C1140   1.384       .  A
C1139      C1146   1.525       .  S
C1140      C1141   1.406       .  A
C1140      H1145   1.079       .  S
C1141      C1142   1.411       .  A
C1142      C1143   1.518       .  S
C1143      F1147   1.384       .  S
C1143      F1148   1.383       .  S
C1143      F1149   1.382       .  S
C1146      F1150   1.383       .  S
C1146      F1151   1.379       .  S
C1146      F1152   1.385       .  S
C1153      C1154   1.401       .  A
C1153      C1158   1.393       .  A
C1153      H1160   1.084       .  S
C1154      C1155   1.417       .  A
C1155      C1156   1.389       .  A
C1155      C1162   1.524       .  S
C1156      C1157   1.393       .  A
C1156      H1161   1.084       .  S
C1157      C1158   1.410       .  A
C1158      C1159   1.521       .  S
C1159      F1163   1.385   1_545  S
C1159      F1164   1.380       .  S
C1159      F1165   1.383       .  S
C1162      F1166   1.381       .  S
C1162      F1167   1.384       .  S
C1162      F1168   1.384       .  S
C1169      C1170   1.404       .  A
C1169      C1174   1.390       .  A
C1169      H1176   1.082       .  S
C1170      C1171   1.411       .  A
C1171      C1172   1.397   1_655  A
C1171      C1178   1.513   1_554  S
C1172      C1173   1.403       .  A
C1172      H1177   1.085       .  S
C1173      C1174   1.415   1_455  A
C1174      C1175   1.525       .  S
C1175      F1179   1.386       .  S
C1175      F1180   1.382   1_655  S
C1175      F1181   1.382   1_655  S
C1178      F1182   1.384       .  S
C1178      F1183   1.384       .  S
C1178      F1184   1.383       .  S
