geometry optimzed in LAMMPS
_audit_creation_date              2020-11-30 
_audit_creation_method            'lammps2cif' 
_symmetry_space_group_name_H-M    'P1' 
_symmetry_Int_Tables_number       1 
_symmetry_cell_setting            triclinic 
loop_ 
_symmetry_equiv_pos_as_xyz 
  x,y,z 
_cell_length_a                    35.03921552 
_cell_length_b                    43.73837892842705 
_cell_length_c                    46.91436422448747 
_cell_angle_alpha                 90.0751462231227 
_cell_angle_beta                  89.99634122744601 
_cell_angle_gamma                 90.01881557587113 
loop_ 
_atom_site_label 
_atom_site_type_symbol 
_atom_site_fract_x 
_atom_site_fract_y 
_atom_site_fract_z 
_atom_site_charge 
C1          C  0.05445170  0.42928151  0.22995394     0.02600
C2          C  0.07848042  0.40794224  0.21636991    -0.13500
C3          C  0.09030914  0.41273916  0.18802630     0.00100
C4          C  0.07899274  0.43953149  0.17409334    -0.12100
C5          C  0.05492430  0.46073362  0.18727197     0.02600
C6          C  0.04265790  0.45564976  0.21526855    -0.11500
H7          H  0.08665307  0.38723454  0.22745997     0.08200
H8          H  0.08714262  0.44326878  0.15206954     0.05700
H9          H  0.02317142  0.47163426  0.22529725     0.05600
C10         C  0.25941666  0.42900938  0.48312892     0.02600
C11         C  0.27227945  0.45487535  0.49796075    -0.13500
C12         C  0.26187051  0.45910625  0.02645666     0.00100
C13         C  0.23869338  0.43763154  0.04008998    -0.12100
C14         C  0.22553303  0.41143094  0.02573501     0.02600
C15         C  0.23574436  0.40751578  0.49688854    -0.11500
H16         H  0.29111067  0.47112079  0.48760029     0.08200
H17         H  0.23213183  0.44101500  0.06245988     0.05700
H18         H  0.22637191  0.38733094  0.48545606     0.05600
Zr19       Zr  0.29370303  0.41986747  0.30322006     2.17500
O20         O  0.23548239  0.41775881  0.27477757    -0.51800
O21         O  0.33746630  0.42356341  0.26299324    -0.75000
O22         O  0.27723259  0.47012669  0.28359934    -0.81800
O23         O  0.28338227  0.33562578  0.31708518    -0.83600
O24         O  0.29760241  0.00594201  0.31539833    -0.79200
O25         O  0.27256252  0.37131268  0.28283699    -0.90800
O26         O  0.06539092  0.42036651  0.27878552    -0.76800
O27         O  0.01521294  0.44900230  0.31579370    -0.86300
O28         O  0.00845114  0.38413521  0.31701758    -0.86000
O29         O  0.27269995  0.45177527  0.34203043    -0.72700
O30         O  0.26781614  0.39201760  0.34316735    -0.84900
Zr31       Zr  0.01833468  0.41959161  0.40891998     2.26400
Zr32       Zr  0.32841976  0.48047084  0.35454787     2.06300
Zr33       Zr  0.31706212  0.35753073  0.35751081     2.10000
Zr34       Zr  0.06276101  0.41331939  0.33000509     1.78800
O35         O  0.26967870  0.32349131  0.37829198    -0.93700
O36         O  0.11192946  0.45198482  0.32305412    -0.41500
O37         O  0.03852154  0.38672837  0.37059778    -0.78100
O38         O  0.04486281  0.44633634  0.36874415    -0.96800
O39         O  0.30310367  0.45414215  0.39470231    -0.90100
O40         O  0.29754624  0.38901505  0.39654472    -0.92900
C41         C  0.04045441  0.42379328  0.25906393     1.00800
C42         C  0.27036611  0.34392608  0.29264592     1.13700
C43         C  0.28100997  0.49789875  0.29224442     1.04500
O44         O  0.04183549  0.01531335  0.33405890    -0.95100
O45         O  0.02807496  0.00431155  0.39371840    -0.90800
O46         O  0.03606917  0.46948454  0.42893689    -0.84000
C47         C  0.03867422  0.49668672  0.41866319     1.11200
O48         O  0.18917595  0.43355422  0.35808760    -0.97100
Zr49       Zr  0.24925284  0.42395960  0.38235842     1.88900
O50         O  0.30869087  0.42440291  0.44942098    -0.73700
O51         O  0.28909844  0.02115663  0.37465576    -0.53000
O52         O  0.21812542  0.47049851  0.39904869    -0.97700
O53         O  0.20367305  0.38305483  0.39160095    -0.54900
O54         O  0.24710246  0.42267056  0.43407357    -0.74200
C55         C  0.27246910  0.42459267  0.45367245     0.98100
O56         O  0.07956960  0.41952363  0.43387821    -0.63100
O57         O  0.02179062  0.31426237  0.34108521    -0.57900
O58         O  0.03303837  0.37019145  0.43038807    -0.94500
O59         O  0.01802401  0.33437117  0.39703770    -0.93000
O60         O  0.08943152  0.36566248  0.31180059    -0.93300
O61         O  0.12214324  0.39875554  0.35312065    -0.92100
C62         C  0.03263739  0.34254772  0.42103294     1.16900
H63         H  0.01434688  0.37029832  0.30157038     0.32900
H64         H  0.06718022  0.45769853  0.37461875     0.43700
H65         H  0.28931177  0.37653703  0.41237954     0.37300
H66         H  0.25242972  0.46518538  0.33591844     0.33700
H67         H  0.12972237  0.44284159  0.30903161     0.25500
H68         H  0.29755520  0.04000349  0.36483015     0.31500
H69         H  0.19516622  0.46339884  0.40943477     0.38200
H70         H  0.11184534  0.37190476  0.30033813     0.31800
H71         H  0.00449617  0.29640328  0.34229458     0.30700
H72         H  0.27987393  0.30266980  0.37502622     0.32400
H73         H  0.18533128  0.39192640  0.40537881     0.31400
H74         H  0.11781914  0.40302686  0.37359610     0.35400
H75         H  0.09271321  0.40054876  0.42786594     0.28100
H76         H  0.24240329  0.42639497  0.25596934     0.32300
H77         H  0.19394195  0.42730461  0.33811028     0.35200
H78         H  0.02541117  0.31758899  0.32039489     0.27800
H79         H  0.09474614  0.43588568  0.42470237     0.40700
H80         H  0.06648345  0.00922197  0.34266307     0.30700
H81         H  0.09899589  0.46854770  0.31242568     0.38300
H82         H  0.21806149  0.36773521  0.40278663     0.30200
H83         H  0.26310329  0.01725597  0.36722263     0.30200
H84         H  0.21806015  0.43297696  0.28344547     0.30500
C85         C  0.08775674  0.30185204  0.48002470     0.02600
C86         C  0.06390618  0.32322245  0.46633715    -0.13500
C87         C  0.05243450  0.31852061  0.43786826     0.00100
C88         C  0.06393256  0.29164684  0.42391904    -0.12100
C89         C  0.08790924  0.27038088  0.43718324     0.02600
C90         C  0.09970847  0.27547958  0.46532119    -0.11500
H91         H  0.05569900  0.34394175  0.47744260     0.08200
H92         H  0.05604045  0.28790798  0.40184170     0.05700
H93         H  0.11918761  0.25956985  0.47542134     0.05600
C94         C  0.21747563  0.30217051  0.23269357     0.02600
C95         C  0.24033010  0.32410762  0.24672623    -0.13500
C96         C  0.24989033  0.32022246  0.27574086     0.00100
C97         C  0.23687150  0.29395910  0.28992162    -0.12100
C98         C  0.21414947  0.27227460  0.27609133     0.02600
C99         C  0.20469755  0.27626720  0.24747066    -0.11500
H100        H  0.24943416  0.34441049  0.23540275     0.08200
H101        H  0.24312134  0.29072986  0.31235323     0.05700
H102        H  0.18627958  0.25980225  0.23696312     0.05600
Zr103      Zr  0.12489294  0.31198502  0.15891297     2.17500
O104        O  0.06619038  0.31556480  0.18667804    -0.51800
O105        O  0.16821194  0.30760633  0.19915141    -0.75000
O106        O  0.10663273  0.26219195  0.17876161    -0.81800
O107        O  0.12628175  0.39735851  0.14782849    -0.83600
O108        O  0.11747541  0.22664404  0.14428343    -0.79200
O109        O  0.10791980  0.36102625  0.17972150    -0.90800
O110        O  0.22963593  0.30752974  0.18346287    -0.76800
O111        O  0.17350603  0.27757075  0.14438940    -0.86300
O112        O  0.17853728  0.34279476  0.14638417    -0.86000
O113        O  0.09776463  0.28480088  0.11917688    -0.72700
O114        O  0.10443950  0.34479912  0.12065444    -0.84900
Zr115      Zr  0.18203311  0.31181405  0.05290830     2.26400
Zr116      Zr  0.14770443  0.25110313  0.10429020     2.06300
Zr117      Zr  0.15883943  0.37418002  0.10743909     2.10000
Zr118      Zr  0.22685403  0.30822274  0.13176008     1.78800
O119        O  0.12034306  0.41601705  0.08877228    -0.93700
O120        O  0.26225861  0.26233839  0.14460346    -0.41500
O121        O  0.20799224  0.33993058  0.09263593    -0.78100
O122        O  0.20299282  0.28021702  0.09177553    -0.96800
O123        O  0.12750360  0.28249750  0.06574825    -0.90100
O124        O  0.13377408  0.34715960  0.06733205    -0.92900
C125        C  0.20442082  0.30650217  0.20322016     1.00800
C126        C  0.11011331  0.38885267  0.17116324     1.13700
C127        C  0.10577190  0.23467978  0.16904735     1.04500
O128        O  0.18397923  0.20690275  0.12041373    -0.95100
O129        O  0.18024047  0.22584204  0.06567696    -0.90800
O130        O  0.19831425  0.26152690  0.03307348    -0.84000
C131        C  0.19617764  0.23386304  0.04229515     1.11200
O132        O  0.02270169  0.33181288  0.10707975    -0.97100
Zr133      Zr  0.07963660  0.31769094  0.08047891     1.88900
O134        O  0.13802101  0.30783491  0.01279685    -0.73700
O135        O  0.09790194  0.22040647  0.08210020    -0.53000
O136        O  0.03257805  0.27723349  0.07446380    -0.97700
O137        O  0.04621659  0.36252923  0.06210335    -0.54900
O138        O  0.07686901  0.31067995  0.02908035    -0.74200
C139        C  0.10164147  0.30739604  0.00915429     0.98100
O140        O  0.24308264  0.31170203  0.02750299    -0.63100
O141        O  0.20701805  0.40783177  0.12794145    -0.57900
O142        O  0.20116049  0.36072961  0.03208076    -0.94500
O143        O  0.19233916  0.39603533  0.06708188    -0.93000
O144        O  0.26873354  0.35102382  0.14284149    -0.93300
O145        O  0.28718835  0.30178480  0.10703910    -0.92100
C146        C  0.20449976  0.38789016  0.04235381     1.16900
H147        H  0.18691832  0.35525049  0.16222388     0.32900
H148        H  0.22348009  0.26699834  0.08566669     0.43700
H149        H  0.12764954  0.36103135  0.05200576     0.37300
H150        H  0.07565060  0.27334242  0.12528719     0.33700
H151        H  0.28188038  0.26939367  0.15831115     0.25500
H152        H  0.10579889  0.19899075  0.08553330     0.31500
H153        H  0.01561943  0.28460455  0.05905366     0.37400
H154        H  0.28775271  0.34253900  0.15628652     0.31800
H155        H  0.23075397  0.40298649  0.11740704     0.30700
H156        H  0.13079140  0.43463264  0.09792279     0.32400
H157        H  0.02240548  0.35436724  0.05362461     0.31400
H158        H  0.28236571  0.30963432  0.08758816     0.35400
H159        H  0.25848295  0.32812109  0.03642156     0.28100
H160        H  0.07232993  0.30668662  0.20553812     0.32300
H161        H  0.02900944  0.32743918  0.12723967     0.35200
H162        H  0.19991850  0.42856340  0.12136553     0.27800
H163        H  0.25644237  0.29283112  0.03348565     0.40700
H164        H  0.21104883  0.21305456  0.11842795     0.30700
H165        H  0.24427672  0.25014223  0.15624156     0.38300
H166        H  0.06129052  0.36957286  0.04552448     0.30200
H167        H  0.07519422  0.22330763  0.09436324     0.30200
H168        H  0.04835481  0.30082782  0.17775024     0.30500
C169        C  0.09010946  0.17872953  0.22970307     0.02600
C170        C  0.06571289  0.15750430  0.21634927    -0.13500
C171        C  0.05362950  0.16221069  0.18805917     0.00100
C172        C  0.06543231  0.18874371  0.17377069    -0.12100
C173        C  0.08970085  0.21000931  0.18675342     0.02600
C174        C  0.10186115  0.20506249  0.21483580    -0.11500
H175        H  0.05747806  0.13689159  0.22757527     0.08200
H176        H  0.05734686  0.19227803  0.15170743     0.05700
H177        H  0.12137634  0.22109261  0.22477118     0.05600
C178        C  0.21986001  0.17920046  0.48282578     0.02600
C179        C  0.24228372  0.15745270  0.49730561    -0.13500
C180        C  0.25093934  0.16145450  0.02624967     0.00100
C181        C  0.23678118  0.18757054  0.04026024    -0.12100
C182        C  0.21428276  0.20912741  0.02591286     0.02600
C183        C  0.20668927  0.20530971  0.49718084    -0.11500
H184        H  0.25177691  0.13709539  0.48620248     0.08200
H185        H  0.24211284  0.19078247  0.06283221     0.05700
H186        H  0.18867723  0.22166713  0.48619713     0.05600
Zr187      Zr  0.12725976  0.16967831  0.40923264     2.17500
O188        O  0.06927589  0.17157329  0.43798303    -0.51800
O189        O  0.17100739  0.17342976  0.44920604    -0.75000
O190        O  0.11048308  0.12017342  0.42952894    -0.81800
O191        O  0.11570619  0.25390380  0.39469312    -0.83600
O192        O  0.13039544  0.08366608  0.39834629    -0.79200
O193        O  0.10725389  0.21862226  0.42964225    -0.90800
O194        O  0.23250781  0.17343800  0.43364087    -0.76800
O195        O  0.18177268  0.13973977  0.39692897    -0.86300
O196        O  0.17529416  0.20480111  0.39489092    -0.86000
O197        O  0.10658301  0.13705834  0.37073188    -0.72700
O198        O  0.09976313  0.19653815  0.36948879    -0.84900
Zr199      Zr  0.18395666  0.16995163  0.30330895     2.26400
Zr200      Zr  0.16191710  0.10797878  0.35802962     2.06300
Zr201      Zr  0.14890127  0.23103728  0.35510407     2.10000
Zr202      Zr  0.22929986  0.17513332  0.38193652     1.78800
O203        O  0.10006206  0.26311747  0.33348514    -0.93700
O204        O  0.27528159  0.13446038  0.39082212    -0.41500
O205        O  0.20406911  0.20234411  0.34190627    -0.78100
O206        O  0.21077368  0.14266119  0.34319369    -0.96800
O207        O  0.13630275  0.13418940  0.31755657    -0.90100
O208        O  0.12958587  0.19952854  0.31642294    -0.92900
C209        C  0.20718808  0.17442723  0.45334312     1.00800
C210        C  0.10467746  0.24587824  0.41960199     1.13700
C211        C  0.11320036  0.09225739  0.42122350     1.04500
O212        O  0.21135360  0.07529080  0.37809883    -0.95100
O213        O  0.19413448  0.08544529  0.31710250    -0.90800
O214        O  0.20302038  0.12095679  0.28235000    -0.84000
C215        C  0.20620884  0.09367455  0.29234543     1.11200
O216        O  0.02251175  0.15033065  0.35371171    -0.97100
Zr217      Zr  0.08212592  0.16381653  0.33029545     1.88900
O218        O  0.14084918  0.17361873  0.26257475    -0.73700
O219        O  0.12439817  0.06486176  0.34070209    -0.53000
O220        O  0.05369189  0.11661430  0.31270477    -0.97700
O221        O  0.03402261  0.20311453  0.32234562    -0.54900
O222        O  0.07978571  0.16918450  0.27864067    -0.74200
C223        C  0.10449691  0.17314113  0.25877547     0.98100
O224        O  0.24533257  0.17016661  0.27843073    -0.63100
O225        O  0.18578176  0.27524147  0.37086574    -0.57900
O226        O  0.19920922  0.22003431  0.28353354    -0.94500
O227        O  0.18213022  0.25560069  0.31664700    -0.93000
O228        O  0.26046530  0.22236910  0.39678072    -0.93300
O229        O  0.28842582  0.18541099  0.35656003    -0.92100
C230        C  0.19723814  0.24758508  0.29294610     1.16900
H231        H  0.18159114  0.21892705  0.41002667     0.32900
H232        H  0.23309639  0.13146318  0.33709289     0.43700
H233        H  0.12096142  0.21256218  0.30113243     0.37300
H234        H  0.08636064  0.12371156  0.37707477     0.33700
H235        H  0.29570078  0.14427518  0.40220697     0.25500
H236        H  0.13242729  0.04724660  0.35250891     0.31500
H237        H  0.03279658  0.12329959  0.29993715     0.37400
H238        H  0.28204747  0.21575873  0.40892565     0.31800
H239        H  0.16793836  0.29274062  0.36960554     0.30700
H240        H  0.10183561  0.28288861  0.34370261     0.32400
H241        H  0.01482850  0.19322702  0.30987219     0.31400
H242        H  0.28066407  0.18795369  0.33641768     0.35400
H243        H  0.25824107  0.18936515  0.28410942     0.28100
H244        H  0.07640873  0.16331999  0.45689879     0.32300
H245        H  0.02503678  0.15882257  0.37319558     0.35200
H246        H  0.18984892  0.27222971  0.39155255     0.27800
H247        H  0.26081295  0.15414269  0.28783034     0.40700
H248        H  0.20816235  0.07700399  0.39901216     0.30700
H249        H  0.26232091  0.12062587  0.40441513     0.38300
H250        H  0.04665062  0.21832685  0.30990227     0.30200
H251        H  0.09792645  0.06927190  0.34683857     0.30200
H252        H  0.05186038  0.15615783  0.42960472     0.30500
C253        C  0.05495357  0.05277379  0.47894186     0.02600
C254        C  0.04292921  0.02648230  0.46420527    -0.13500
C255        C  0.05526529  0.02118113  0.43626162     0.00100
C256        C  0.08005955  0.04208410  0.42325925    -0.12100
C257        C  0.09221605  0.06858219  0.43752927     0.02600
C258        C  0.07981525  0.07364748  0.46568155    -0.11500
H259        H  0.02313745  0.01070771  0.47416810     0.08200
H260        H  0.08831168  0.03834007  0.40125484     0.05700
H261        H  0.08836272  0.09420020  0.47692626     0.05600
C262        C  0.26213048  0.05386490  0.23279102     0.02600
C263        C  0.23805365  0.07501315  0.24670483    -0.13500
C264        C  0.22729640  0.07025675  0.27537843     0.00100
C265        C  0.24029382  0.04373512  0.28927332    -0.12100
C266        C  0.26410670  0.02269314  0.27550920     0.02600
C267        C  0.27489458  0.02775024  0.24729890    -0.11500
H268        H  0.22888962  0.09541023  0.23556507     0.08200
H269        H  0.23324042  0.03983566  0.31147383     0.05700
H270        H  0.29403656  0.01178854  0.23685092     0.05600
Zr271      Zr  0.29508320  0.06133863  0.05291469     2.17500
O272        O  0.23653224  0.05709201  0.02500860    -0.51800
O273        O  0.33818747  0.05832128  0.01208620    -0.75000
O274        O  0.27385772  0.11050361  0.03347805    -0.81800
O275        O  0.29479318  0.47569445  0.06669019    -0.83600
O276        O  0.28522353  0.14651615  0.06742077    -0.79200
O277        O  0.27677509  0.01144400  0.03418566    -0.90800
O278        O  0.06629253  0.06181369  0.02764123    -0.76800
O279        O  0.01022267  0.09672317  0.06655411    -0.86300
O280        O  0.01595358  0.03132907  0.06542350    -0.86000
O281        O  0.26892556  0.08927775  0.09283508    -0.72700
O282        O  0.27518621  0.02952148  0.09188286    -0.84900
Zr283      Zr  0.02050692  0.06173959  0.15817413     2.26400
Zr284      Zr  0.31894539  0.12338470  0.10717568     2.06300
Zr285      Zr  0.32997454  0.00024878  0.10439585     2.10000
Zr286      Zr  0.06415373  0.06663828  0.07907844     1.78800
O287        O  0.29241467  0.45707668  0.12191432    -0.93700
O288        O  0.09375044  0.11332823  0.06123484    -0.41500
O289        O  0.04658126  0.03414678  0.11830454    -0.78100
O290        O  0.04073564  0.09407257  0.11947733    -0.96800
O291        O  0.29961225  0.09210603  0.14625883    -0.90100
O292        O  0.30503323  0.02719909  0.14423529    -0.92900
C293        C  0.04122073  0.05843202  0.00801465     1.00800
C294        C  0.27893724  0.48378457  0.04331535     1.13700
C295        C  0.27178410  0.13800270  0.04316855     1.04500
O296        O  0.02436411  0.16611580  0.09076256    -0.95100
O297        O  0.01759556  0.14652576  0.14799316    -0.90800
O298        O  0.03521459  0.11052690  0.18037672    -0.84000
C299        C  0.03338464  0.13825846  0.17154000     1.11200
O300        O  0.19228338  0.04530043  0.10695196    -0.97100
Zr301      Zr  0.25115469  0.05728755  0.13202952     1.88900
O302        O  0.31135158  0.05834428  0.19898188    -0.73700
O303        O  0.27338393  0.15875676  0.12838824    -0.53000
O304        O  0.20720558  0.09937842  0.14086075    -0.97700
O305        O  0.21666134  0.01226288  0.14873955    -0.54900
O306        O  0.24970495  0.06023547  0.18374579    -0.74200
C307        C  0.27514580  0.05846069  0.20331863     0.98100
O308        O  0.08285863  0.06200049  0.18151658    -0.63100
O309        O  0.04374225  0.46651016  0.08268721    -0.57900
O310        O  0.03748534  0.01280259  0.17959758    -0.94500
O311        O  0.02781539  0.47728721  0.14475701    -0.93000
O312        O  0.10987027  0.02554001  0.07114440    -0.93300
O313        O  0.12479896  0.07855369  0.10172128    -0.92100
C314        C  0.03899496  0.48533784  0.16965767     1.16900
H315        H  0.02417291  0.01820772  0.05003169     0.32900
H316        H  0.06112351  0.10733943  0.12572175     0.43700
H317        H  0.29892085  0.01320965  0.15946787     0.37300
H318        H  0.24655294  0.10053432  0.08697338     0.33700
H319        H  0.11619761  0.10631714  0.05018593     0.25500
H320        H  0.28047546  0.17900963  0.12059162     0.31500
H321        H  0.18619259  0.09017391  0.15206283     0.37400
H322        H  0.12844519  0.03400188  0.05733563     0.31800
H323        H  0.06828716  0.47269490  0.09140973     0.30700
H324        H  0.30437078  0.43873441  0.11332783     0.32400
H325        H  0.19497166  0.02048520  0.15990875     0.31400
H326        H  0.12128613  0.07253986  0.12188686     0.35400
H327        H  0.09730564  0.04515247  0.17241530     0.28100
H328        H  0.24219405  0.06652842  0.00630048     0.32300
H329        H  0.19942246  0.04493846  0.08653407     0.35200
H330        H  0.03842605  0.44606425  0.09081326     0.27800
H331        H  0.09592551  0.08064018  0.17458673     0.40700
H332        H  0.02810451  0.16240371  0.07012931     0.30700
H333        H  0.07590923  0.12123937  0.04663700     0.38300
H334        H  0.23333867  0.00257191  0.16314886     0.30200
H335        H  0.24868965  0.15383571  0.11921605     0.30200
H336        H  0.21802356  0.07103818  0.03426502     0.30500
C337        C  0.05438220  0.42930268  0.73002976     0.02600
C338        C  0.07804878  0.40780204  0.71633237    -0.13500
C339        C  0.08991389  0.41263254  0.68800980     0.00100
C340        C  0.07886122  0.43953281  0.67416060    -0.12100
C341        C  0.05496239  0.46081010  0.68739127     0.02600
C342        C  0.04280344  0.45578488  0.71542590    -0.11500
H343        H  0.08599618  0.38699417  0.72734997     0.08200
H344        H  0.08705484  0.44329682  0.65214934     0.05700
H345        H  0.02352717  0.47187703  0.72553155     0.05600
C346        C  0.25946976  0.42877913  0.98318122     0.02600
C347        C  0.27214245  0.45470755  0.99803403    -0.13500
C348        C  0.26220696  0.45921231  0.52641877     0.00100
C349        C  0.23909074  0.43775893  0.54012407    -0.12100
C350        C  0.22574664  0.41162819  0.52578342     0.02600
C351        C  0.23575743  0.40727069  0.99689150    -0.11500
H352        H  0.29098681  0.47096943  0.98771443     0.08200
H353        H  0.23269470  0.44111430  0.56252487     0.05700
H354        H  0.22652075  0.38704077  0.98546503     0.05600
Zr355      Zr  0.29379336  0.41989713  0.80327212     2.17500
O356        O  0.23595201  0.41797184  0.77439307    -0.51800
O357        O  0.33740479  0.42369133  0.76302409    -0.75000
O358        O  0.27731165  0.47008247  0.78363525    -0.81800
O359        O  0.28350401  0.33559032  0.81702885    -0.83600
O360        O  0.29781714  0.00585858  0.81535537    -0.79200
O361        O  0.27244211  0.37139092  0.78294061    -0.90800
O362        O  0.06549600  0.42050890  0.77885417    -0.76800
O363        O  0.01526174  0.44898543  0.81589239    -0.86300
O364        O  0.00854871  0.38422993  0.81698841    -0.86000
O365        O  0.27284512  0.45176619  0.84213080    -0.72700
O366        O  0.26781613  0.39200790  0.84313288    -0.84900
Zr367      Zr  0.01850008  0.41948765  0.90898744     2.26400
Zr368      Zr  0.32864052  0.48042486  0.85459784     2.06300
Zr369      Zr  0.31706171  0.35752657  0.85746476     2.10000
Zr370      Zr  0.06288626  0.41337043  0.83005935     1.78800
O371        O  0.26910773  0.32391771  0.87811686    -0.93700
O372        O  0.11176389  0.45226955  0.82307303    -0.41500
O373        O  0.03861186  0.38670030  0.87057984    -0.78100
O374        O  0.04505465  0.44634003  0.86885895    -0.96800
O375        O  0.30326810  0.45405764  0.89472398    -0.90100
O376        O  0.29777720  0.38895389  0.89659345    -0.92900
C377        C  0.04049637  0.42383695  0.75916025     1.00800
C378        C  0.27037525  0.34396424  0.79265310     1.13700
C379        C  0.28138496  0.49784743  0.79217735     1.04500
O380        O  0.04217752  0.01504309  0.83393820    -0.95100
O381        O  0.02782557  0.00445552  0.89375457    -0.90800
O382        O  0.03667634  0.46926697  0.92900622    -0.84000
C383        C  0.03887249  0.49653167  0.91882505     1.11200
O384        O  0.18893916  0.43305836  0.85858942    -0.97100
Zr385      Zr  0.24941731  0.42382191  0.88243456     1.88900
O386        O  0.30884707  0.42476714  0.94941907    -0.73700
O387        O  0.28987084  0.02142140  0.87457337    -0.53000
O388        O  0.21834401  0.47034847  0.89920543    -0.97700
O389        O  0.20422937  0.38257128  0.89144817    -0.54900
O390        O  0.24729881  0.42185904  0.93415032    -0.74200
C391        C  0.27262881  0.42437320  0.95372138     0.98100
O392        O  0.07962456  0.41858479  0.93412877    -0.63100
O393        O  0.02182144  0.31419252  0.84105536    -0.57900
O394        O  0.03284562  0.36996882  0.93033449    -0.94500
O395        O  0.01801151  0.33418546  0.89689275    -0.93000
O396        O  0.08952580  0.36573883  0.81175444    -0.93300
O397        O  0.12216913  0.39882598  0.85333729    -0.92100
C398        C  0.03252327  0.34234445  0.92093085     1.16900
H399        H  0.01442516  0.37043905  0.80150213     0.32900
H400        H  0.06736228  0.45771117  0.87474276     0.43700
H401        H  0.28960004  0.37644629  0.91242337     0.37300
H402        H  0.25262335  0.46523403  0.83603844     0.33700
H403        H  0.12930344  0.44340255  0.80872351     0.25500
H404        H  0.29870391  0.04019503  0.86480944     0.31500
H405        H  0.19588294  0.46321181  0.91015989     0.38200
H406        H  0.11189395  0.37199635  0.80025125     0.31800
H407        H  0.00411744  0.29654658  0.84135378     0.30700
H408        H  0.27946922  0.30304598  0.87549661     0.32400
H409        H  0.18604712  0.39111174  0.90552137     0.31400
H410        H  0.11727848  0.40200635  0.87391332     0.35400
H411        H  0.09287651  0.39990008  0.92748251     0.28100
H412        H  0.24324307  0.42638863  0.75557399     0.32300
H413        H  0.19444163  0.42977932  0.83811194     0.35200
H414        H  0.02654954  0.31803103  0.82056830     0.27800
H415        H  0.09482006  0.43534369  0.92561946     0.40700
H416        H  0.06627284  0.01046666  0.84409581     0.30700
H417        H  0.09854130  0.46896486  0.81282866     0.38300
H418        H  0.21887754  0.36711124  0.90226990     0.30200
H419        H  0.26385244  0.01781559  0.86705903     0.30200
H420        H  0.21854032  0.43336879  0.78279392     0.30500
C421        C  0.08745563  0.30169368  0.98004943     0.02600
C422        C  0.06364597  0.32304884  0.96629689    -0.13500
C423        C  0.05232343  0.31834484  0.93778965     0.00100
C424        C  0.06401307  0.29153205  0.92383817    -0.12100
C425        C  0.08794416  0.27028010  0.93716338     0.02600
C426        C  0.09951679  0.27533796  0.96536016    -0.11500
H427        H  0.05536363  0.34376192  0.97738103     0.08200
H428        H  0.05628687  0.28782603  0.90172291     0.05700
H429        H  0.11894857  0.25942894  0.97551106     0.05600
C430        C  0.21745951  0.30235206  0.73265981     0.02600
C431        C  0.24040679  0.32422105  0.74669590    -0.13500
C432        C  0.24990118  0.32030614  0.77571498     0.00100
C433        C  0.23677317  0.29407528  0.78987666    -0.12100
C434        C  0.21401008  0.27244709  0.77601580     0.02600
C435        C  0.20462317  0.27645361  0.74739684    -0.11500
H436        H  0.24959727  0.34450718  0.73538482     0.08200
H437        H  0.24296593  0.29083433  0.81231614     0.05700
H438        H  0.18617841  0.26002264  0.73686779     0.05600
Zr439      Zr  0.12484011  0.31199827  0.65890864     2.17500
O440        O  0.06551385  0.31503431  0.68600498    -0.51800
O441        O  0.16814002  0.30784965  0.69918367    -0.75000
O442        O  0.10698695  0.26217664  0.67896826    -0.81800
O443        O  0.12590464  0.39729593  0.64782819    -0.83600
O444        O  0.11810002  0.22677013  0.64442461    -0.79200
O445        O  0.10752012  0.36093687  0.67969819    -0.90800
O446        O  0.22956764  0.30774293  0.68346834    -0.76800
O447        O  0.17360558  0.27773292  0.64434278    -0.86300
O448        O  0.17843586  0.34296578  0.64645807    -0.86000
O449        O  0.09777527  0.28491949  0.61910548    -0.72700
O450        O  0.10454959  0.34486580  0.62064409    -0.84900
Zr451      Zr  0.18216081  0.31215183  0.55294418     2.26400
Zr452      Zr  0.14781934  0.25132478  0.60423363     2.06300
Zr453      Zr  0.15889182  0.37437939  0.60750529     2.10000
Zr454      Zr  0.22688111  0.30853249  0.63179747     1.78800
O455        O  0.12079621  0.41648272  0.58896058    -0.93700
O456        O  0.26266650  0.26292682  0.64486449    -0.41500
O457        O  0.20812647  0.34027518  0.59268415    -0.78100
O458        O  0.20307915  0.28052325  0.59181682    -0.96800
O459        O  0.12765430  0.28276079  0.56569694    -0.90100
O460        O  0.13383086  0.34743877  0.56735810    -0.92900
C461        C  0.20436066  0.30673421  0.70322477     1.00800
C462        C  0.10967684  0.38875913  0.67113211     1.13700
C463        C  0.10628676  0.23467992  0.66919407     1.04500
O464        O  0.18345005  0.20644172  0.61955918    -0.95100
O465        O  0.18060635  0.22619764  0.56568733    -0.90800
O466        O  0.19872760  0.26190752  0.53313951    -0.84000
C467        C  0.19664253  0.23424043  0.54235965     1.11200
O468        O  0.02247440  0.33237720  0.60649499    -0.97100
Zr469      Zr  0.07971457  0.31789413  0.58040719     1.88900
O470        O  0.13833242  0.30825884  0.51272767    -0.73700
O471        O  0.09763208  0.22104091  0.58209025    -0.53000
O472        O  0.03268344  0.27745502  0.57415228    -0.97700
O473        O  0.04682321  0.36286585  0.56170848    -0.54900
O474        O  0.07717389  0.31052835  0.52906705    -0.74200
C475        C  0.10195896  0.30752765  0.50911656     0.98100
O476        O  0.24310610  0.31251985  0.52741069    -0.63100
O477        O  0.20716706  0.40795597  0.62798541    -0.57900
O478        O  0.20111669  0.36103123  0.53205437    -0.94500
O479        O  0.19274590  0.39618280  0.56723562    -0.93000
O480        O  0.26884761  0.35111436  0.64346818    -0.93300
O481        O  0.28662108  0.30210771  0.60628772    -0.92100
C482        C  0.20470978  0.38811413  0.54242634     1.16900
H483        H  0.18675342  0.35541479  0.66232219     0.32900
H484        H  0.22361470  0.26734500  0.58572656     0.43700
H485        H  0.12773188  0.36134579  0.55205432     0.37300
H486        H  0.07568593  0.27342010  0.62520023     0.33700
H487        H  0.28208733  0.27014002  0.65866099     0.25500
H488        H  0.10505076  0.19959842  0.58592919     0.31500
H489        H  0.01379652  0.28605569  0.56066652     0.37400
H490        H  0.28876382  0.34210374  0.65585137     0.31800
H491        H  0.23102577  0.40266501  0.61779565     0.30700
H492        H  0.13112461  0.43495565  0.59843324     0.32400
H493        H  0.02257245  0.35493048  0.55375403     0.31400
H494        H  0.28208614  0.31173836  0.58750617     0.35400
H495        H  0.25855745  0.32875654  0.53656873     0.28100
H496        H  0.07173301  0.30712427  0.70522263     0.32300
H497        H  0.02929187  0.33011187  0.62686398     0.35200
H498        H  0.20053286  0.42861854  0.62096445     0.27800
H499        H  0.25649007  0.29353295  0.53302506     0.40700
H500        H  0.21059848  0.21182068  0.61649221     0.30700
H501        H  0.24470656  0.25060905  0.65641169     0.38300
H502        H  0.06156314  0.36932429  0.54475798     0.30200
H503        H  0.07483848  0.22446265  0.59414537     0.30200
H504        H  0.04844840  0.29945536  0.67748368     0.30500
C505        C  0.09022253  0.17847575  0.72962479     0.02600
C506        C  0.06591233  0.15729229  0.71615639    -0.13500
C507        C  0.05398162  0.16208720  0.68785310     0.00100
C508        C  0.06600254  0.18860991  0.67362029    -0.12100
C509        C  0.09016454  0.20987727  0.68675588     0.02600
C510        C  0.10206153  0.20486354  0.71488294    -0.11500
H511        H  0.05757872  0.13666610  0.72732207     0.08200
H512        H  0.05808247  0.19216688  0.65152679     0.05700
H513        H  0.12146377  0.22088201  0.72495785     0.05600
C514        C  0.21983607  0.17903125  0.98264177     0.02600
C515        C  0.24236798  0.15735106  0.99711112    -0.13500
C516        C  0.25102782  0.16159415  0.52640883     0.00100
C517        C  0.23707924  0.18781312  0.54039215    -0.12100
C518        C  0.21478158  0.20949408  0.52600591     0.02600
C519        C  0.20624557  0.20495379  0.99707756    -0.11500
H520        H  0.25208979  0.13708341  0.98597403     0.08200
H521        H  0.24242289  0.19101939  0.56296287     0.05700
H522        H  0.18808082  0.22122241  0.98611844     0.05600
Zr523      Zr  0.12739318  0.16964379  0.90905757     2.17500
O524        O  0.06952381  0.17127687  0.93795957    -0.51800
O525        O  0.17123486  0.17319120  0.94891979    -0.75000
O526        O  0.11101284  0.12014405  0.92953122    -0.81800
O527        O  0.11604647  0.25392949  0.89474347    -0.83600
O528        O  0.13071615  0.08367899  0.89823504    -0.79200
O529        O  0.10728565  0.21852578  0.92955219    -0.90800
O530        O  0.23276479  0.17362590  0.93343585    -0.76800
O531        O  0.18188074  0.13977365  0.89664000    -0.86300
O532        O  0.17542560  0.20479791  0.89475499    -0.86000
O533        O  0.10659762  0.13703632  0.87059112    -0.72700
O534        O  0.09991196  0.19659988  0.86937933    -0.84900
Zr535      Zr  0.18404655  0.17008790  0.80314591     2.26400
Zr536      Zr  0.16193204  0.10804743  0.85777088     2.06300
Zr537      Zr  0.14903024  0.23112324  0.85502415     2.10000
Zr538      Zr  0.22944506  0.17517131  0.88173089     1.78800
O539        O  0.10015676  0.26333690  0.83361915    -0.93700
O540        O  0.27496486  0.13424011  0.89091031    -0.41500
O541        O  0.20423985  0.20248882  0.84174272    -0.78100
O542        O  0.21082102  0.14275289  0.84300227    -0.96800
O543        O  0.13636132  0.13432488  0.81733651    -0.90100
O544        O  0.12965872  0.19963588  0.81630453    -0.92900
C545        C  0.20738286  0.17434845  0.95310654     1.00800
C546        C  0.10485117  0.24582679  0.91959343     1.13700
C547        C  0.11366687  0.09223808  0.92119309     1.04500
O548        O  0.21111299  0.07481903  0.87735958    -0.95100
O549        O  0.19447088  0.08557525  0.81699473    -0.90800
O550        O  0.20367794  0.12115482  0.78235548    -0.84000
C551        C  0.20676796  0.09385569  0.79232102     1.11200
O552        O  0.02263405  0.15096985  0.85393093    -0.97100
Zr553      Zr  0.08219930  0.16391687  0.83020362     1.88900
O554        O  0.14081241  0.17328518  0.76250974    -0.73700
O555        O  0.12370313  0.06548406  0.84015530    -0.53000
O556        O  0.05336407  0.11689091  0.81255270    -0.97700
O557        O  0.03432991  0.20342170  0.82245086    -0.54900
O558        O  0.07972044  0.16903876  0.77855381    -0.74200
C559        C  0.10447595  0.17284739  0.75869993     0.98100
O560        O  0.24489714  0.17022822  0.77749249    -0.63100
O561        O  0.18608847  0.27524553  0.87081234    -0.57900
O562        O  0.19893964  0.22024935  0.78339244    -0.94500
O563        O  0.18203754  0.25578874  0.81656725    -0.93000
O564        O  0.26114585  0.22217121  0.89662309    -0.93300
O565        O  0.28825061  0.18499197  0.85579513    -0.92100
C566        C  0.19704293  0.24778310  0.79283697     1.16900
H567        H  0.18172671  0.21888633  0.90991948     0.32900
H568        H  0.23315246  0.13156871  0.83690029     0.43700
H569        H  0.12100965  0.21263895  0.80099787     0.37300
H570        H  0.08640694  0.12367104  0.87696329     0.33700
H571        H  0.29488919  0.14375788  0.90298258     0.25500
H572        H  0.13186063  0.04762286  0.85158468     0.31500
H573        H  0.03201870  0.12370412  0.80026742     0.37400
H574        H  0.28276047  0.21538541  0.90865138     0.31800
H575        H  0.16789007  0.29256263  0.87083350     0.30700
H576        H  0.10543896  0.28412636  0.84100808     0.32400
H577        H  0.01608799  0.19420971  0.80878915     0.31400
H578        H  0.28068285  0.18487893  0.83546654     0.35400
H579        H  0.25744308  0.18992138  0.78202267     0.28100
H580        H  0.07670607  0.16286594  0.95680531     0.32300
H581        H  0.02546669  0.15939418  0.87341821     0.35200
H582        H  0.19165796  0.27151058  0.89119755     0.27800
H583        H  0.26105181  0.15501804  0.78741950     0.40700
H584        H  0.20907857  0.07733110  0.89828265     0.30700
H585        H  0.26139762  0.12010450  0.90388984     0.38300
H586        H  0.04764401  0.21939590  0.81130719     0.30200
H587        H  0.09741155  0.06990515  0.84670263     0.30200
H588        H  0.05208078  0.15593414  0.92949714     0.30500
C589        C  0.05518627  0.05289535  0.97890440     0.02600
C590        C  0.04294547  0.02669443  0.96411903    -0.13500
C591        C  0.05530822  0.02132897  0.93619178     0.00100
C592        C  0.08019816  0.04217955  0.92319381    -0.12100
C593        C  0.09265733  0.06856221  0.93752238     0.02600
C594        C  0.08036611  0.07359717  0.96571707    -0.11500
H595        H  0.02300505  0.01101507  0.97404662     0.08200
H596        H  0.08834263  0.03846905  0.90116274     0.05700
H597        H  0.08915747  0.09404787  0.97701983     0.05600
C598        C  0.26214842  0.05369174  0.73270512     0.02600
C599        C  0.23839823  0.07502908  0.74666881    -0.13500
C600        C  0.22787104  0.07043081  0.77540322     0.00100
C601        C  0.24088074  0.04395340  0.78935068    -0.12100
C602        C  0.26430002  0.02269430  0.77551583     0.02600
C603        C  0.27477217  0.02753185  0.74720827    -0.11500
H604        H  0.22928857  0.09542931  0.73550864     0.08200
H605        H  0.23405350  0.04020860  0.81161411     0.05700
H606        H  0.29363955  0.01140615  0.73669942     0.05600
Zr607      Zr  0.29514132  0.06133691  0.55294955     2.17500
O608        O  0.23694069  0.05734400  0.52460941    -0.51800
O609        O  0.33818838  0.05805390  0.51214727    -0.75000
O610        O  0.27405015  0.11061770  0.53357179    -0.81800
O611        O  0.29553846  0.47567319  0.56644198    -0.83600
O612        O  0.28528657  0.14658115  0.56756453    -0.79200
O613        O  0.27633202  0.01159648  0.53428244    -0.90800
O614        O  0.06613537  0.06162201  0.52767809    -0.76800
O615        O  0.01027874  0.09648869  0.56653608    -0.86300
O616        O  0.01586506  0.03112385  0.56550701    -0.86000
O617        O  0.26905818  0.08929117  0.59284770    -0.72700
O618        O  0.27507758  0.02942290  0.59184135    -0.84900
Zr619      Zr  0.02038417  0.06160228  0.65815293     2.26400
Zr620      Zr  0.31914318  0.12334315  0.60716581     2.06300
Zr621      Zr  0.32983542  0.00008210  0.60441044     2.10000
Zr622      Zr  0.06412528  0.06636919  0.57913519     1.78800
O623        O  0.29207639  0.45731254  0.62188088    -0.93700
O624        O  0.09378014  0.11330848  0.56195712    -0.41500
O625        O  0.04648882  0.03391089  0.61835592    -0.78100
O626        O  0.04072354  0.09384573  0.61949071    -0.96800
O627        O  0.29965077  0.09208913  0.64624641    -0.90100
O628        O  0.30492421  0.02709393  0.64418580    -0.92900
C629        C  0.04104533  0.05826197  0.50805854     1.00800
C630        C  0.27932641  0.48383708  0.54323577     1.13700
C631        C  0.27187956  0.13810222  0.54330303     1.04500
O632        O  0.02570935  0.16464566  0.58931525    -0.95100
O633        O  0.01768238  0.14657164  0.64786211    -0.90800
O634        O  0.03533012  0.11047151  0.68015336    -0.84000
C635        C  0.03357100  0.13822461  0.67134112     1.11200
O636        O  0.19231649  0.04516811  0.60693725    -0.97100
Zr637      Zr  0.25115650  0.05728933  0.63198591     1.88900
O638        O  0.31136153  0.05796183  0.69891265    -0.73700
O639        O  0.27361147  0.15922340  0.62768929    -0.53000
O640        O  0.20711465  0.09942473  0.64028863    -0.97700
O641        O  0.21637833  0.01270484  0.64939307    -0.54900
O642        O  0.24974041  0.06028948  0.68368973    -0.74200
C643        C  0.27516509  0.05825602  0.70324652     0.98100
O644        O  0.08291156  0.06195697  0.68121677    -0.63100
O645        O  0.04372763  0.46626816  0.58291146    -0.57900
O646        O  0.03728215  0.01271408  0.67966221    -0.94500
O647        O  0.02800776  0.47736681  0.64482987    -0.93000
O648        O  0.11001526  0.02548358  0.57082610    -0.93300
O649        O  0.12478419  0.07808248  0.60182589    -0.92100
C650        C  0.03905408  0.48540646  0.66977166     1.16900
H651        H  0.02407918  0.01799576  0.55011819     0.32900
H652        H  0.06114793  0.10706253  0.62575430     0.43700
H653        H  0.29876182  0.01311043  0.65941282     0.37300
H654        H  0.24670897  0.10057065  0.58697781     0.33700
H655        H  0.11308135  0.10650728  0.54789393     0.25500
H656        H  0.28109991  0.17937557  0.61986974     0.31500
H657        H  0.18774513  0.09099263  0.65349174     0.37400
H658        H  0.12834521  0.03404666  0.55688884     0.31800
H659        H  0.06828748  0.47244034  0.59161901     0.30700
H660        H  0.30369021  0.43891200  0.61314058     0.32400
H661        H  0.19460355  0.02121360  0.66028261     0.31400
H662        H  0.12090585  0.07288608  0.62215152     0.35400
H663        H  0.09716258  0.04487949  0.67231648     0.28100
H664        H  0.24291912  0.06675435  0.50594370     0.32300
H665        H  0.19917010  0.04582219  0.58647219     0.35200
H666        H  0.03832373  0.44587314  0.59111594     0.27800
H667        H  0.09604030  0.08040822  0.67392200     0.40700
H668        H  0.05185243  0.15923333  0.59551394     0.30700
H669        H  0.07395658  0.12355430  0.55036229     0.38300
H670        H  0.23288405  0.00330069  0.66407840     0.30200
H671        H  0.24901549  0.15445296  0.61829755     0.30200
H672        H  0.21837589  0.07135137  0.53372063     0.30500
C673        C  0.05402801  0.92919467  0.22983297     0.02600
C674        C  0.07793795  0.90780684  0.21619515    -0.13500
C675        C  0.09003523  0.91274074  0.18792839     0.00100
C676        C  0.07902647  0.93967124  0.17410184    -0.12100
C677        C  0.05491499  0.96084603  0.18726673     0.02600
C678        C  0.04246082  0.95567427  0.21521455    -0.11500
H679        H  0.08590312  0.88700178  0.22720970     0.08200
H680        H  0.08739701  0.94352240  0.15214061     0.05700
H681        H  0.02301697  0.97168319  0.22525466     0.05600
C682        C  0.25932746  0.92905125  0.48320500     0.02600
C683        C  0.27212314  0.95494872  0.49801602    -0.13500
C684        C  0.26179014  0.95923580  0.02653899     0.00100
C685        C  0.23836682  0.93787340  0.04009145    -0.12100
C686        C  0.22520748  0.91168425  0.02570899     0.02600
C687        C  0.23552602  0.90762241  0.49695472    -0.11500
H688        H  0.29103896  0.97115082  0.48768263     0.08200
H689        H  0.23168711  0.94129249  0.06243763     0.05700
H690        H  0.22619169  0.88740828  0.48555137     0.05600
Zr691      Zr  0.29374129  0.91984460  0.30332579     2.17500
O692        O  0.23540513  0.91805320  0.27502036    -0.51800
O693        O  0.33723665  0.92328731  0.26292296    -0.75000
O694        O  0.27728710  0.97005939  0.28366723    -0.81800
O695        O  0.28339235  0.83564303  0.31718166    -0.83600
O696        O  0.29753233  0.50596062  0.31539409    -0.79200
O697        O  0.27243171  0.87135546  0.28298143    -0.90800
O698        O  0.06509017  0.92061022  0.27871452    -0.76800
O699        O  0.01510449  0.94903494  0.31581095    -0.86300
O700        O  0.00843271  0.88414289  0.31709055    -0.86000
O701        O  0.27273984  0.95172281  0.34214680    -0.72700
O702        O  0.26790023  0.89194812  0.34326003    -0.84900
Zr703      Zr  0.01837431  0.91960961  0.40894272     2.26400
Zr704      Zr  0.32840250  0.98049911  0.35462627     2.06300
Zr705      Zr  0.31718602  0.85751130  0.35758307     2.10000
Zr706      Zr  0.06272260  0.91341420  0.32995312     1.78800
O707        O  0.26989520  0.82343748  0.37847258    -0.93700
O708        O  0.11174532  0.95220143  0.32302815    -0.41500
O709        O  0.03854768  0.88678660  0.37057044    -0.78100
O710        O  0.04490777  0.94637319  0.36875997    -0.96800
O711        O  0.30309550  0.95415405  0.39478211    -0.90100
O712        O  0.29767912  0.88898594  0.39661810    -0.92900
C713        C  0.04009362  0.92372700  0.25898040     1.00800
C714        C  0.27030119  0.84396375  0.29276627     1.13700
C715        C  0.28104714  0.99783837  0.29227311     1.04500
O716        O  0.04171340  0.51545543  0.33408593    -0.95100
O717        O  0.02798189  0.50447520  0.39360801    -0.90800
O718        O  0.03603718  0.96938033  0.42910847    -0.84000
C719        C  0.03869694  0.99654934  0.41879510     1.11200
O720        O  0.18927952  0.93307183  0.35800811    -0.97100
Zr721      Zr  0.24931084  0.92386273  0.38245814     1.88900
O722        O  0.30871959  0.92469414  0.44948628    -0.73700
O723        O  0.28929866  0.52115432  0.37472668    -0.53000
O724        O  0.21815123  0.97043742  0.39902171    -0.97700
O725        O  0.20360210  0.88308977  0.39189087    -0.54900
O726        O  0.24714964  0.92235440  0.43416892    -0.74200
C727        C  0.27248614  0.92459135  0.45375891     0.98100
O728        O  0.07973201  0.91962076  0.43374254    -0.63100
O729        O  0.02262952  0.81471945  0.34096200    -0.57900
O730        O  0.03307830  0.87029264  0.43048186    -0.94500
O731        O  0.01803136  0.83444843  0.39715757    -0.93000
O732        O  0.08976871  0.86622054  0.31101641    -0.93300
O733        O  0.12178673  0.89877394  0.35347030    -0.92100
C734        C  0.03269446  0.84265680  0.42112192     1.16900
H735        H  0.01431988  0.87029889  0.30164657     0.32900
H736        H  0.06723265  0.95773031  0.37462825     0.43700
H737        H  0.28948342  0.87650781  0.41246418     0.37300
H738        H  0.25245239  0.96511312  0.33602903     0.33700
H739        H  0.13004409  0.94281626  0.30951821     0.25500
H740        H  0.29715976  0.53990346  0.36447396     0.31500
H741        H  0.19529373  0.96334186  0.40953396     0.38200
H742        H  0.11309556  0.87264302  0.30071267     0.31800
H743        H  0.00708748  0.79629599  0.34491404     0.30700
H744        H  0.27737244  0.80273997  0.37198511     0.32400
H745        H  0.18563324  0.89189767  0.40597617     0.31400
H746        H  0.11839632  0.90542322  0.37349152     0.35400
H747        H  0.09280114  0.90057740  0.42782876     0.28100
H748        H  0.24226522  0.92676565  0.25622987     0.32300
H749        H  0.19396740  0.92621903  0.33819199     0.35200
H750        H  0.02288869  0.81636842  0.31992019     0.27800
H751        H  0.09490236  0.93588734  0.42441336     0.40700
H752        H  0.06627478  0.50971824  0.34303546     0.30700
H753        H  0.09900477  0.96841378  0.31181587     0.38300
H754        H  0.21811051  0.86757024  0.40274599     0.30200
H755        H  0.26311503  0.51690919  0.36784861     0.30200
H756        H  0.21808045  0.93326542  0.28380720     0.30500
C757        C  0.08781107  0.80194660  0.48004749     0.02600
C758        C  0.06410885  0.82338807  0.46634289    -0.13500
C759        C  0.05257288  0.81866768  0.43790350     0.00100
C760        C  0.06401020  0.79179087  0.42393339    -0.12100
C761        C  0.08793790  0.77047967  0.43717113     0.02600
C762        C  0.09970847  0.77554582  0.46533327    -0.11500
H763        H  0.05599228  0.84413930  0.47743618     0.08200
H764        H  0.05607909  0.78806984  0.40186153     0.05700
H765        H  0.11911095  0.75958827  0.47544696     0.05600
C766        C  0.21748978  0.80213231  0.23279096     0.02600
C767        C  0.24022315  0.82415033  0.24683866    -0.13500
C768        C  0.24983984  0.82027168  0.27585217     0.00100
C769        C  0.23692865  0.79399300  0.29003406    -0.12100
C770        C  0.21426337  0.77228050  0.27621760     0.02600
C771        C  0.20482921  0.77620484  0.24758241    -0.11500
H772        H  0.24922141  0.84448698  0.23552164     0.08200
H773        H  0.24320302  0.79077438  0.31246423     0.05700
H774        H  0.18648374  0.75968209  0.23708404     0.05600
Zr775      Zr  0.12492323  0.81198560  0.15893577     2.17500
O776        O  0.06615324  0.81540244  0.18663766    -0.51800
O777        O  0.16820904  0.80772599  0.19924271    -0.75000
O778        O  0.10650143  0.76220546  0.17869868    -0.81800
O779        O  0.12621734  0.89744869  0.14778503    -0.83600
O780        O  0.11797329  0.72660786  0.14438182    -0.79200
O781        O  0.10759028  0.86104714  0.17952654    -0.90800
O782        O  0.22962035  0.80724301  0.18352470    -0.76800
O783        O  0.17363354  0.77765891  0.14443567    -0.86300
O784        O  0.17852438  0.84285624  0.14642000    -0.86000
O785        O  0.09786054  0.78475596  0.11920394    -0.72700
O786        O  0.10449707  0.84473634  0.12064719    -0.84900
Zr787      Zr  0.18212229  0.81186511  0.05291520     2.26400
Zr788      Zr  0.14791145  0.75116013  0.10433833     2.06300
Zr789      Zr  0.15882218  0.87420773  0.10745309     2.10000
Zr790      Zr  0.22693117  0.80835300  0.13181394     1.78800
O791        O  0.12005726  0.91607633  0.08918757    -0.93700
O792        O  0.26211478  0.76229123  0.14442562    -0.41500
O793        O  0.20805950  0.84002740  0.09264334    -0.78100
O794        O  0.20316073  0.78031987  0.09179792    -0.96800
O795        O  0.12764822  0.78251043  0.06578935    -0.90100
O796        O  0.13375722  0.84715121  0.06734687    -0.92900
C797        C  0.20441675  0.80642071  0.20330152     1.00800
C798        C  0.10987725  0.88889302  0.17103961     1.13700
C799        C  0.10594446  0.73466682  0.16904625     1.04500
O800        O  0.18390108  0.70673114  0.12029131    -0.95100
O801        O  0.18038948  0.72572530  0.06581895    -0.90800
O802        O  0.19825689  0.76142048  0.03316790    -0.84000
C803        C  0.19621924  0.73374053  0.04240040     1.11200
O804        O  0.02264716  0.83166713  0.10707486    -0.97100
Zr805      Zr  0.07966451  0.81761958  0.08049082     1.88900
O806        O  0.13822017  0.80793246  0.01277867    -0.73700
O807        O  0.09773025  0.72088996  0.08215892    -0.53000
O808        O  0.03269513  0.77715102  0.07406661    -0.97700
O809        O  0.04625231  0.86250818  0.06219365    -0.54900
O810        O  0.07706943  0.81061083  0.02908713    -0.74200
C811        C  0.10184843  0.80741591  0.00915458     0.98100
O812        O  0.24301360  0.81168555  0.02731854    -0.63100
O813        O  0.20719186  0.90773955  0.12791440    -0.57900
O814        O  0.20113638  0.86086938  0.03210520    -0.94500
O815        O  0.19199903  0.89621657  0.06702354    -0.93000
O816        O  0.26861965  0.85105501  0.14366255    -0.93300
O817        O  0.28734107  0.80259692  0.10704378    -0.92100
C818        C  0.20425280  0.88807923  0.04232319     1.16900
H819        H  0.18686971  0.85531626  0.16226766     0.32900
H820        H  0.22364331  0.76710127  0.08568029     0.43700
H821        H  0.12755613  0.86102227  0.05203522     0.37300
H822        H  0.07577465  0.77325609  0.12530524     0.33700
H823        H  0.28222312  0.76931534  0.15774795     0.25500
H824        H  0.10606563  0.69944500  0.08474198     0.31500
H825        H  0.01549596  0.78480259  0.05892472     0.37400
H826        H  0.28647003  0.84277660  0.15807928     0.31800
H827        H  0.23024631  0.90442794  0.11609685     0.30700
H828        H  0.13364262  0.93487191  0.09516542     0.32400
H829        H  0.02179575  0.85454093  0.05462691     0.31400
H830        H  0.28137081  0.80702204  0.08684310     0.35400
H831        H  0.25851228  0.82803020  0.03625955     0.28100
H832        H  0.07234797  0.80669310  0.20555612     0.32300
H833        H  0.02971840  0.82925936  0.12738170     0.35200
H834        H  0.19868046  0.92867811  0.12306577     0.27800
H835        H  0.25633074  0.79275007  0.03317450     0.40700
H836        H  0.21101907  0.71260338  0.11795975     0.30700
H837        H  0.24433055  0.75035368  0.15646161     0.38300
H838        H  0.06055942  0.86889309  0.04501312     0.30200
H839        H  0.07543730  0.72311398  0.09495796     0.30200
H840        H  0.04844376  0.80051262  0.17778774     0.30500
C841        C  0.09026903  0.67866625  0.22961001     0.02600
C842        C  0.06584159  0.65747017  0.21623927    -0.13500
C843        C  0.05375568  0.66220297  0.18794592     0.00100
C844        C  0.06556633  0.68875240  0.17368389    -0.12100
C845        C  0.08983932  0.70999144  0.18670104     0.02600
C846        C  0.10202052  0.70500577  0.21476545    -0.11500
H847        H  0.05758824  0.63685709  0.22745510     0.08200
H848        H  0.05749319  0.69232183  0.15162178     0.05700
H849        H  0.12154537  0.72102334  0.22470849     0.05600
C850        C  0.21979796  0.67902345  0.48281350     0.02600
C851        C  0.24246544  0.65738145  0.49720870    -0.13500
C852        C  0.25123938  0.66140195  0.02618220     0.00100
C853        C  0.23686542  0.68740576  0.04028602    -0.12100
C854        C  0.21432715  0.70898757  0.02598456     0.02600
C855        C  0.20647120  0.70505564  0.49723334    -0.11500
H856        H  0.25202218  0.63705950  0.48607652     0.08200
H857        H  0.24211739  0.69053108  0.06287847     0.05700
H858        H  0.18823346  0.72130579  0.48632041     0.05600
Zr859      Zr  0.12728989  0.66970185  0.40918607     2.17500
O860        O  0.06922779  0.67159532  0.43782907    -0.51800
O861        O  0.17100711  0.67330535  0.44915540    -0.75000
O862        O  0.11080921  0.62022733  0.42963770    -0.81800
O863        O  0.11551381  0.75397475  0.39457831    -0.83600
O864        O  0.13043264  0.58377052  0.39830312    -0.79200
O865        O  0.10736921  0.71871277  0.42959218    -0.90800
O866        O  0.23252916  0.67330438  0.43363103    -0.76800
O867        O  0.18178494  0.63976734  0.39685786    -0.86300
O868        O  0.17537582  0.70478483  0.39490619    -0.86000
O869        O  0.10657905  0.63710510  0.37066248    -0.72700
O870        O  0.09981294  0.69658587  0.36948303    -0.84900
Zr871      Zr  0.18399954  0.66997913  0.30331788     2.26400
Zr872      Zr  0.16192186  0.60802835  0.35797502     2.06300
Zr873      Zr  0.14897715  0.73105029  0.35514545     2.10000
Zr874      Zr  0.22937822  0.67511025  0.38192526     1.78800
O875        O  0.10003911  0.76290195  0.33340436    -0.93700
O876        O  0.27527449  0.63439192  0.39091862    -0.41500
O877        O  0.20411964  0.70234046  0.34192526    -0.78100
O878        O  0.21082633  0.64266470  0.34317182    -0.96800
O879        O  0.13628326  0.63426247  0.31753178    -0.90100
O880        O  0.12968419  0.69960327  0.31640552    -0.92900
C881        C  0.20717835  0.67427231  0.45331671     1.00800
C882        C  0.10464772  0.74596214  0.41953793     1.13700
C883        C  0.11339877  0.59233276  0.42125122     1.04500
O884        O  0.21138770  0.57540334  0.37809426    -0.95100
O885        O  0.19409502  0.58547114  0.31706992    -0.90800
O886        O  0.20302812  0.62100804  0.28235158    -0.84000
C887        C  0.20618500  0.59372031  0.29232680     1.11200
O888        O  0.02249146  0.65090454  0.35377542    -0.97100
Zr889      Zr  0.08214860  0.66395961  0.33024674     1.88900
O890        O  0.14098195  0.67360927  0.26252632    -0.73700
O891        O  0.12457748  0.56483617  0.34061590    -0.53000
O892        O  0.05282180  0.61705547  0.31276392    -0.97700
O893        O  0.03461666  0.70372534  0.32237235    -0.54900
O894        O  0.07990519  0.66915072  0.27855672    -0.74200
C895        C  0.10463438  0.67309393  0.25869924     0.98100
O896        O  0.24536698  0.67012456  0.27843210    -0.63100
O897        O  0.18580377  0.77522890  0.37105584    -0.57900
O898        O  0.19925946  0.72009023  0.28366401    -0.94500
O899        O  0.18234691  0.75566153  0.31682177    -0.93000
O900        O  0.26035789  0.72241848  0.39679928    -0.93300
O901        O  0.28848384  0.68517232  0.35643046    -0.92100
C902        C  0.19737718  0.74762949  0.29310074     1.16900
H903        H  0.18166419  0.71889350  0.41005778     0.32900
H904        H  0.23313663  0.63145462  0.33706427     0.43700
H905        H  0.12110744  0.71263314  0.30109761     0.37300
H906        H  0.08636047  0.62375713  0.37701458     0.33700
H907        H  0.29567978  0.64418553  0.40233280     0.25500
H908        H  0.13228504  0.54731924  0.35266604     0.31500
H909        H  0.03222911  0.62395147  0.29982020     0.37400
H910        H  0.28183507  0.71586176  0.40907126     0.31800
H911        H  0.16797958  0.79274027  0.36980486     0.30700
H912        H  0.10693292  0.78406151  0.33888160     0.32400
H913        H  0.01540457  0.69411405  0.30972931     0.31400
H914        H  0.28051125  0.68926493  0.33655851     0.35400
H915        H  0.25818954  0.68943058  0.28389576     0.28100
H916        H  0.07639707  0.66354902  0.45681439     0.32300
H917        H  0.02535172  0.65910042  0.37334347     0.35200
H918        H  0.18981208  0.77217109  0.39174303     0.27800
H919        H  0.26091786  0.65426608  0.28800939     0.40700
H920        H  0.20828439  0.57723973  0.39900612     0.30700
H921        H  0.26225035  0.62057532  0.40449415     0.38300
H922        H  0.04753992  0.71895095  0.31011501     0.30200
H923        H  0.09801065  0.56939287  0.34641907     0.30200
H924        H  0.05196043  0.65600900  0.42955651     0.30500
C925        C  0.05523602  0.55277924  0.47894423     0.02600
C926        C  0.04311116  0.52653544  0.46415611    -0.13500
C927        C  0.05529535  0.52131063  0.43615662     0.00100
C928        C  0.08007137  0.54224065  0.42316934    -0.12100
C929        C  0.09239942  0.56864823  0.43751837     0.02600
C930        C  0.08011478  0.57364504  0.46570298    -0.11500
H931        H  0.02333699  0.51074946  0.47412014     0.08200
H932        H  0.08821199  0.53857540  0.40113105     0.05700
H933        H  0.08873808  0.59415690  0.47698201     0.05600
C934        C  0.26225505  0.55402420  0.23280601     0.02600
C935        C  0.23806045  0.57511106  0.24669051    -0.13500
C936        C  0.22728918  0.57033095  0.27535990     0.00100
C937        C  0.24031573  0.54382613  0.28926154    -0.12100
C938        C  0.26414878  0.52280323  0.27550160     0.02600
C939        C  0.27504128  0.52792375  0.24732566    -0.11500
H940        H  0.22883792  0.59548734  0.23554380     0.08200
H941        H  0.23324617  0.53991296  0.31145780     0.05700
H942        H  0.29424482  0.51199391  0.23690015     0.05600
Zr943      Zr  0.29526798  0.56121737  0.05284654     2.17500
O944        O  0.23660107  0.55728595  0.02502726    -0.51800
O945        O  0.33842406  0.55793687  0.01211182    -0.75000
O946        O  0.27440398  0.61046037  0.03327763    -0.81800
O947        O  0.29479199  0.97572821  0.06678650    -0.83600
O948        O  0.28543957  0.64640379  0.06733546    -0.79200
O949        O  0.27683960  0.51136389  0.03403605    -0.90800
O950        O  0.06639350  0.56177137  0.02768608    -0.76800
O951        O  0.01039724  0.59657908  0.06650965    -0.86300
O952        O  0.01607555  0.53113575  0.06543146    -0.86000
O953        O  0.26908890  0.58915993  0.09271689    -0.72700
O954        O  0.27518282  0.52950017  0.09186006    -0.84900
Zr955      Zr  0.02063992  0.56171389  0.15814684     2.26400
Zr956      Zr  0.31900527  0.62328315  0.10711435     2.06300
Zr957      Zr  0.32986314  0.50011723  0.10441898     2.10000
Zr958      Zr  0.06425426  0.56644963  0.07913347     1.78800
O959        O  0.29291817  0.95692523  0.12171819    -0.93700
O960        O  0.09483894  0.61291630  0.06172281    -0.41500
O961        O  0.04659598  0.53400313  0.11833781    -0.78100
O962        O  0.04081407  0.59401974  0.11942666    -0.96800
O963        O  0.29978822  0.59210340  0.14625191    -0.90100
O964        O  0.30506810  0.52717790  0.14424241    -0.92900
C965        C  0.04137475  0.55825724  0.00804359     1.00800
C966        C  0.27889510  0.98385670  0.04343518     1.13700
C967        C  0.27215573  0.63793085  0.04303624     1.04500
O968        O  0.02344451  0.66622906  0.09000287    -0.95100
O969        O  0.01794583  0.64648043  0.14776227    -0.90800
O970        O  0.03508883  0.61055116  0.18036972    -0.84000
C971        C  0.03350327  0.63825502  0.17141363     1.11200
O972        O  0.19219770  0.54563964  0.10721585    -0.97100
Zr973      Zr  0.25130484  0.55736549  0.13203002     1.88900
O974        O  0.31152728  0.55826365  0.19900229    -0.73700
O975        O  0.27228235  0.65755326  0.12846925    -0.53000
O976        O  0.20807891  0.59997239  0.14067254    -0.97700
O977        O  0.21667567  0.51248352  0.14889399    -0.54900
O978        O  0.24990320  0.56056375  0.18375534    -0.74200
C979        C  0.27531994  0.55861066  0.20333686     0.98100
O980        O  0.08336550  0.56221493  0.18087380    -0.63100
O981        O  0.04400264  0.96703069  0.08243401    -0.57900
O982        O  0.03764226  0.51272560  0.17954191    -0.94500
O983        O  0.02806907  0.97747333  0.14467048    -0.93000
O984        O  0.10963399  0.52498755  0.07191959    -0.93300
O985        O  0.12520948  0.57823347  0.10132911    -0.92100
C986        C  0.03905354  0.98546640  0.16963890     1.16900
H987        H  0.02433400  0.51799276  0.05006637     0.32900
H988        H  0.06120737  0.60729462  0.12564306     0.43700
H989        H  0.29891665  0.51322442  0.15949504     0.37300
H990        H  0.24672837  0.60040204  0.08680730     0.33700
H991        H  0.11705075  0.60574749  0.05049747     0.25500
H992        H  0.27983591  0.67817328  0.12183556     0.31500
H993        H  0.18696599  0.59108374  0.15198712     0.37400
H994        H  0.12696423  0.53240725  0.05675677     0.31800
H995        H  0.06836407  0.97274630  0.09170742     0.30700
H996        H  0.30635776  0.93861554  0.11439491     0.32400
H997        H  0.19492172  0.52079517  0.15993405     0.31400
H998        H  0.12113335  0.57438341  0.12188937     0.35400
H999        H  0.09763640  0.54527841  0.17175848     0.28100
H1000       H  0.24240558  0.56644277  0.00622237     0.32300
H1001       H  0.19876905  0.54688589  0.08672331     0.35200
H1002       H  0.03823487  0.94636838  0.08988336     0.27800
H1003       H  0.09625075  0.58080073  0.17363369     0.40700
H1004       H  0.04980693  0.65819913  0.08889253     0.30700
H1005       H  0.07706551  0.62127927  0.04730044     0.38300
H1006       H  0.23325875  0.50290192  0.16342777     0.30200
H1007       H  0.24813186  0.65319158  0.11829771     0.30200
H1008       H  0.21833118  0.57153634  0.03414593     0.30500
C1009       C  0.05421278  0.92930466  0.72993104     0.02600
C1010       C  0.07806080  0.90788292  0.71631115    -0.13500
C1011       C  0.08993634  0.91269203  0.68799305     0.00100
C1012       C  0.07888925  0.93958513  0.67412176    -0.12100
C1013       C  0.05488862  0.96081673  0.68730596     0.02600
C1014       C  0.04256869  0.95573793  0.71528831    -0.11500
H1015       H  0.08608270  0.88711833  0.72736838     0.08200
H1016       H  0.08714908  0.94337403  0.65212780     0.05700
H1017       H  0.02315205  0.97176707  0.72533094     0.05600
C1018       C  0.25938106  0.92896742  0.98322538     0.02600
C1019       C  0.27221817  0.95479691  0.99814935    -0.13500
C1020       C  0.26188677  0.95937584  0.52642677     0.00100
C1021       C  0.23865797  0.93799592  0.54012191    -0.12100
C1022       C  0.22538302  0.91181840  0.52581994     0.02600
C1023       C  0.23548499  0.90754043  0.99687364    -0.11500
H1024       H  0.29125158  0.97097051  0.98790147     0.08200
H1025       H  0.23218686  0.94141537  0.56250337     0.05700
H1026       H  0.22617861  0.88735421  0.98541377     0.05600
Zr1027     Zr  0.29378432  0.91984009  0.80326273     2.17500
O1028       O  0.23590115  0.91797575  0.77442222    -0.51800
O1029       O  0.33728633  0.92360474  0.76293505    -0.75000
O1030       O  0.27720309  0.97003671  0.78368096    -0.81800
O1031       O  0.28350870  0.83561119  0.81704605    -0.83600
O1032       O  0.29810049  0.50589700  0.81525583    -0.79200
O1033       O  0.27259007  0.87134085  0.78286704    -0.90800
O1034       O  0.06525604  0.92043123  0.77874031    -0.76800
O1035       O  0.01523594  0.94901131  0.81577436    -0.86300
O1036       O  0.00848523  0.88417635  0.81699593    -0.86000
O1037       O  0.27283286  0.95171294  0.84212807    -0.72700
O1038       O  0.26776811  0.89197591  0.84315165    -0.84900
Zr1039     Zr  0.01847945  0.91952130  0.90898586     2.26400
Zr1040     Zr  0.32859471  0.98039954  0.85458331     2.06300
Zr1041     Zr  0.31700023  0.85751288  0.85755894     2.10000
Zr1042     Zr  0.06280765  0.91337118  0.82997485     1.78800
O1043       O  0.26871868  0.82456267  0.87870749    -0.93700
O1044       O  0.11172236  0.95219470  0.82270630    -0.41500
O1045       O  0.03853906  0.88676070  0.87054152    -0.78100
O1046       O  0.04504675  0.94630654  0.86881549    -0.96800
O1047       O  0.30321777  0.95404382  0.89470701    -0.90100
O1048       O  0.29769107  0.88897028  0.89664560    -0.92900
C1049       C  0.04027658  0.92382158  0.75904198     1.00800
C1050       C  0.27047396  0.84393750  0.79262426     1.13700
C1051       C  0.28114462  0.99780013  0.79226431     1.04500
O1052       O  0.04194672  0.51493424  0.83362381    -0.95100
O1053       O  0.02776333  0.50438090  0.89389120    -0.90800
O1054       O  0.03640797  0.96940984  0.92896839    -0.84000
C1055       C  0.03873027  0.99665513  0.91874582     1.11200
O1056       O  0.18923260  0.93346625  0.85819785    -0.97100
Zr1057     Zr  0.24933958  0.92383622  0.88243850     1.88900
O1058       O  0.30876908  0.92471789  0.94946769    -0.73700
O1059       O  0.28975135  0.52135417  0.87457335    -0.53000
O1060       O  0.21795563  0.97018560  0.89933396    -0.97700
O1061       O  0.20424597  0.88256294  0.89164780    -0.54900
O1062       O  0.24720188  0.92221368  0.93416965    -0.74200
C1063       C  0.27254066  0.92454900  0.95375679     0.98100
O1064       O  0.07965924  0.91861762  0.93401736    -0.63100
O1065       O  0.02099916  0.81361362  0.84157776    -0.57900
O1066       O  0.03282944  0.87002657  0.93043914    -0.94500
O1067       O  0.01830741  0.83429728  0.89687562    -0.93000
O1068       O  0.08952394  0.86556982  0.81214528    -0.93300
O1069       O  0.12227250  0.89910615  0.85311746    -0.92100
C1070       C  0.03270557  0.84242279  0.92096486     1.16900
H1071       H  0.01438658  0.87033589  0.80155168     0.32900
H1072       H  0.06736754  0.95766608  0.87469065     0.43700
H1073       H  0.28950992  0.87649143  0.91249382     0.37300
H1074       H  0.25258818  0.96515649  0.83603375     0.33700
H1075       H  0.12950568  0.94306061  0.80867154     0.25500
H1076       H  0.29838697  0.54012504  0.86470780     0.31500
H1077       H  0.19527382  0.96294093  0.90997029     0.38200
H1078       H  0.11101115  0.87178862  0.79972494     0.31800
H1079       H  0.00344607  0.79595519  0.84321360     0.30700
H1080       H  0.27676172  0.80353390  0.87370306     0.32400
H1081       H  0.18543746  0.89143783  0.90506674     0.31400
H1082       H  0.11772051  0.90298159  0.87363375     0.35400
H1083       H  0.09300880  0.90008779  0.92710577     0.28100
H1084       H  0.24301097  0.92677712  0.75571795     0.32300
H1085       H  0.19429383  0.92814435  0.83802870     0.35200
H1086       H  0.02442672  0.81650854  0.82081037     0.27800
H1087       H  0.09468870  0.93557136  0.92568158     0.40700
H1088       H  0.06617410  0.51023777  0.84355122     0.30700
H1089       H  0.09863907  0.96866990  0.81205748     0.38300
H1090       H  0.21861529  0.86758300  0.90323870     0.30200
H1091       H  0.26371882  0.51759316  0.86715271     0.30200
H1092       H  0.21833578  0.93308562  0.78309405     0.30500
C1093       C  0.08768348  0.80172557  0.98005810     0.02600
C1094       C  0.06385695  0.82307866  0.96632038    -0.13500
C1095       C  0.05257935  0.81841317  0.93779990     0.00100
C1096       C  0.06433040  0.79161468  0.92383450    -0.12100
C1097       C  0.08827352  0.77035128  0.93715968     0.02600
C1098       C  0.09980252  0.77539409  0.96536387    -0.11500
H1099       H  0.05552895  0.84376408  0.97742999     0.08200
H1100       H  0.05660876  0.78791908  0.90171866     0.05700
H1101       H  0.11923841  0.75949139  0.97552162     0.05600
C1102       C  0.21765894  0.80227448  0.73261525     0.02600
C1103       C  0.24058323  0.82415508  0.74665477    -0.13500
C1104       C  0.25005688  0.82025128  0.77567873     0.00100
C1105       C  0.23693583  0.79401437  0.78983819    -0.12100
C1106       C  0.21422274  0.77235804  0.77596407     0.02600
C1107       C  0.20486199  0.77635621  0.74734010    -0.11500
H1108       H  0.24974930  0.84445077  0.73534671     0.08200
H1109       H  0.24308816  0.79079149  0.81228572     0.05700
H1110       H  0.18643847  0.75991526  0.73680398     0.05600
Zr1111     Zr  0.12488638  0.81204396  0.65897047     2.17500
O1112       O  0.06544108  0.81488644  0.68597150    -0.51800
O1113       O  0.16827987  0.80773284  0.69918108    -0.75000
O1114       O  0.10688806  0.76231094  0.67903616    -0.81800
O1115       O  0.12554444  0.89725834  0.64768319    -0.83600
O1116       O  0.11814481  0.72685498  0.64455339    -0.79200
O1117       O  0.10787818  0.86101356  0.67988228    -0.90800
O1118       O  0.22969696  0.80779929  0.68343540    -0.76800
O1119       O  0.17366700  0.77776227  0.64439380    -0.86300
O1120       O  0.17846453  0.84299318  0.64648534    -0.86000
O1121       O  0.09789609  0.78491802  0.61917362    -0.72700
O1122       O  0.10443747  0.84486622  0.62071008    -0.84900
Zr1123     Zr  0.18212792  0.81211402  0.55297494     2.26400
Zr1124     Zr  0.14789056  0.75130093  0.60428856     2.06300
Zr1125     Zr  0.15880542  0.87434790  0.60752842     2.10000
Zr1126     Zr  0.22692520  0.80856736  0.63178162     1.78800
O1127       O  0.12101269  0.91669544  0.58908218    -0.93700
O1128       O  0.26308815  0.76304832  0.64453524    -0.41500
O1129       O  0.20810406  0.84028450  0.59266645    -0.78100
O1130       O  0.20309213  0.78053745  0.59184221    -0.96800
O1131       O  0.12764391  0.78271204  0.56575934    -0.90100
O1132       O  0.13378397  0.84735528  0.56740887    -0.92900
C1133       C  0.20451110  0.80668487  0.70319921     1.00800
C1134       C  0.10967980  0.88879287  0.67114062     1.13700
C1135       C  0.10622136  0.73481305  0.66928608     1.04500
O1136       O  0.18351918  0.70638190  0.61949826    -0.95100
O1137       O  0.18080811  0.72606537  0.56581727    -0.90800
O1138       O  0.19871636  0.76179146  0.53321478    -0.84000
C1139       C  0.19673177  0.73410986  0.54243802     1.11200
O1140       O  0.02236242  0.83167767  0.60677090    -0.97100
Zr1141     Zr  0.07967512  0.81782828  0.58047965     1.88900
O1142       O  0.13827833  0.80823130  0.51281338    -0.73700
O1143       O  0.09751454  0.72142331  0.58188312    -0.53000
O1144       O  0.03263688  0.77737324  0.57428617    -0.97700
O1145       O  0.04704258  0.86306581  0.56208118    -0.54900
O1146       O  0.07709708  0.81067835  0.52909082    -0.74200
C1147       C  0.10191936  0.80759368  0.50916658     0.98100
O1148       O  0.24283595  0.81238217  0.52715243    -0.63100
O1149       O  0.20737586  0.90744872  0.62827419    -0.57900
O1150       O  0.20102067  0.86114530  0.53224265    -0.94500
O1151       O  0.19231556  0.89642993  0.56726910    -0.93000
O1152       O  0.26888850  0.85125400  0.64310127    -0.93300
O1153       O  0.28692034  0.80175928  0.60668594    -0.92100
C1154       C  0.20439579  0.88830015  0.54251170     1.16900
H1155       H  0.18678916  0.85545200  0.66234058     0.32900
H1156       H  0.22363053  0.76736605  0.58574753     0.43700
H1157       H  0.12770683  0.86125195  0.55209417     0.37300
H1158       H  0.07582011  0.77340990  0.62528042     0.33700
H1159       H  0.28331725  0.77044492  0.65758125     0.25500
H1160       H  0.10514445  0.69990631  0.58507445     0.31500
H1161       H  0.01468513  0.78539364  0.55981460     0.37400
H1162       H  0.28943511  0.84217383  0.65485030     0.31800
H1163       H  0.23110144  0.90231333  0.61784585     0.30700
H1164       H  0.13206987  0.93517947  0.59806447     0.32400
H1165       H  0.02300153  0.85520734  0.55372032     0.31400
H1166       H  0.28214585  0.81009156  0.58740516     0.35400
H1167       H  0.25828799  0.82877724  0.53605815     0.28100
H1168       H  0.07156880  0.80689013  0.70517490     0.32300
H1169       H  0.02811846  0.82647569  0.62685137     0.35200
H1170       H  0.20071994  0.92825146  0.62163730     0.27800
H1171       H  0.25636033  0.79351240  0.53291892     0.40700
H1172       H  0.21068996  0.71227359  0.61756176     0.30700
H1173       H  0.24571468  0.75106859  0.65686167     0.38300
H1174       H  0.06210333  0.86987912  0.54541214     0.30200
H1175       H  0.07491498  0.72437518  0.59424561     0.30200
H1176       H  0.04840269  0.79935104  0.67734825     0.30500
C1177       C  0.09011574  0.67866730  0.72969551     0.02600
C1178       C  0.06579313  0.65748827  0.71623196    -0.13500
C1179       C  0.05386990  0.66227042  0.68792360     0.00100
C1180       C  0.06586705  0.68880319  0.67370215    -0.12100
C1181       C  0.09001445  0.71007062  0.68684903     0.02600
C1182       C  0.10189198  0.70508058  0.71498066    -0.11500
H1183       H  0.05749315  0.63685017  0.72739146     0.08200
H1184       H  0.05798491  0.69234849  0.65159948     0.05700
H1185       H  0.12128556  0.72110538  0.72505839     0.05600
C1186       C  0.22006514  0.67901695  0.98262698     0.02600
C1187       C  0.24276898  0.65739866  0.99702310    -0.13500
C1188       C  0.25136631  0.66157189  0.52627422     0.00100
C1189       C  0.23743475  0.68779022  0.54028967    -0.12100
C1190       C  0.21484180  0.70935966  0.52600912     0.02600
C1191       C  0.20633649  0.70485956  0.99713200    -0.11500
H1192       H  0.25264542  0.63721795  0.98582419     0.08200
H1193       H  0.24297051  0.69105224  0.56282675     0.05700
H1194       H  0.18810323  0.72110262  0.98620578     0.05600
Zr1195     Zr  0.12755106  0.66966450  0.90907201     2.17500
O1196       O  0.06940837  0.67140656  0.93763636    -0.51800
O1197       O  0.17138356  0.67321524  0.94894921    -0.75000
O1198       O  0.11102341  0.62015009  0.92953612    -0.81800
O1199       O  0.11609213  0.75388180  0.89466464    -0.83600
O1200       O  0.13068489  0.58365680  0.89823645    -0.79200
O1201       O  0.10785667  0.71861551  0.92966784    -0.90800
O1202       O  0.23288648  0.67346944  0.93340889    -0.76800
O1203       O  0.18193046  0.63967123  0.89662906    -0.86300
O1204       O  0.17559699  0.70476884  0.89467076    -0.86000
O1205       O  0.10667605  0.63709814  0.87062476    -0.72700
O1206       O  0.09999116  0.69659731  0.86939404    -0.84900
Zr1207     Zr  0.18405527  0.67001309  0.80311281     2.26400
Zr1208     Zr  0.16187872  0.60798472  0.85773725     2.06300
Zr1209     Zr  0.14911960  0.73109054  0.85495122     2.10000
Zr1210     Zr  0.22953627  0.67501693  0.88169573     1.78800
O1211       O  0.10034566  0.76332616  0.83342343    -0.93700
O1212       O  0.27483012  0.63389494  0.89080737    -0.41500
O1213       O  0.20425732  0.70234784  0.84173223    -0.78100
O1214       O  0.21085443  0.64262813  0.84293824    -0.96800
O1215       O  0.13633611  0.63427894  0.81729426    -0.90100
O1216       O  0.12969513  0.69959868  0.81626489    -0.92900
C1217       C  0.20754346  0.67430996  0.95310384     1.00800
C1218       C  0.10516800  0.74586268  0.91960736     1.13700
C1219       C  0.11363001  0.59223293  0.92118992     1.04500
O1220       O  0.21096222  0.57451049  0.87711190    -0.95100
O1221       O  0.19427550  0.58533703  0.81698184    -0.90800
O1222       O  0.20354095  0.62098489  0.78240732    -0.84000
C1223       C  0.20658014  0.59365839  0.79232068     1.11200
O1224       O  0.02236850  0.65060422  0.85334028    -0.97100
Zr1225     Zr  0.08223104  0.66390215  0.83021910     1.88900
O1226       O  0.14082572  0.67327667  0.76246897    -0.73700
O1227       O  0.12307169  0.56580094  0.84002328    -0.53000
O1228       O  0.05355356  0.61665457  0.81293746    -0.97700
O1229       O  0.03421954  0.70327674  0.82236381    -0.54900
O1230       O  0.07976232  0.66922223  0.77860895    -0.74200
C1231       C  0.10447216  0.67297285  0.75872318     0.98100
O1232       O  0.24493048  0.67074489  0.77752178    -0.63100
O1233       O  0.18629623  0.77527027  0.87044196    -0.57900
O1234       O  0.19916867  0.72015289  0.78338412    -0.94500
O1235       O  0.18209136  0.75574104  0.81646223    -0.93000
O1236       O  0.26144337  0.72186626  0.89674320    -0.93300
O1237       O  0.28841409  0.68525679  0.85598511    -0.92100
C1238       C  0.19721159  0.74770465  0.79278249     1.16900
H1239       H  0.18195820  0.71887161  0.90980963     0.32900
H1240       H  0.23315538  0.63141791  0.83681371     0.43700
H1241       H  0.12105344  0.71261628  0.80096695     0.37300
H1242       H  0.08645920  0.62377309  0.87702268     0.33700
H1243       H  0.29526393  0.64349980  0.90233178     0.25500
H1244       H  0.13155944  0.54771578  0.85100302     0.31500
H1245       H  0.03332833  0.62328718  0.79955881     0.37400
H1246       H  0.28291478  0.71498735  0.90886885     0.31800
H1247       H  0.16806536  0.79256467  0.87058896     0.30700
H1248       H  0.10657486  0.78431007  0.83986091     0.32400
H1249       H  0.01564097  0.69377842  0.80913026     0.31400
H1250       H  0.28085567  0.68568002  0.83566073     0.35400
H1251       H  0.25795647  0.68987073  0.78326616     0.28100
H1252       H  0.07645566  0.66315205  0.95656942     0.32300
H1253       H  0.02494366  0.65876331  0.87294267     0.35200
H1254       H  0.19213310  0.77154493  0.89078596     0.27800
H1255       H  0.26068380  0.65462188  0.78650663     0.40700
H1256       H  0.20993752  0.57778590  0.89798474     0.30700
H1257       H  0.26152516  0.62016266  0.90430482     0.38300
H1258       H  0.04727394  0.71897986  0.81072346     0.30200
H1259       H  0.09698231  0.57008654  0.84708093     0.30200
H1260       H  0.05211256  0.65595084  0.92918350     0.30500
C1261       C  0.05539812  0.55272206  0.97896559     0.02600
C1262       C  0.04329489  0.52645674  0.96422662    -0.13500
C1263       C  0.05552106  0.52117562  0.93625950     0.00100
C1264       C  0.08025280  0.54211415  0.92321426    -0.12100
C1265       C  0.09263301  0.56853956  0.93752256     0.02600
C1266       C  0.08037193  0.57354270  0.96572638    -0.11500
H1267       H  0.02348955  0.51069884  0.97419976     0.08200
H1268       H  0.08832954  0.53843312  0.90116538     0.05700
H1269       H  0.08904177  0.59404194  0.97700409     0.05600
C1270       C  0.26241385  0.55390005  0.73271913     0.02600
C1271       C  0.23838013  0.57504812  0.74666331    -0.13500
C1272       C  0.22772483  0.57029390  0.77535423     0.00100
C1273       C  0.24077989  0.54379364  0.78923901    -0.12100
C1274       C  0.26453625  0.52274995  0.77544075     0.02600
C1275       C  0.27524644  0.52779692  0.74721375    -0.11500
H1276       H  0.22915749  0.59543379  0.73553143     0.08200
H1277       H  0.23377769  0.53989591  0.81144886     0.05700
H1278       H  0.29435721  0.51183122  0.73673790     0.05600
Zr1279     Zr  0.29523186  0.56125755  0.55289152     2.17500
O1280       O  0.23699811  0.55705414  0.52461506    -0.51800
O1281       O  0.33827923  0.55794897  0.51210503    -0.75000
O1282       O  0.27414381  0.61053266  0.53349689    -0.81800
O1283       O  0.29555622  0.97570101  0.56632187    -0.83600
O1284       O  0.28579994  0.64658543  0.56734200    -0.79200
O1285       O  0.27677881  0.51145123  0.53414170    -0.90800
O1286       O  0.06637054  0.56198230  0.52765440    -0.76800
O1287       O  0.01045634  0.59650953  0.56650245    -0.86300
O1288       O  0.01606976  0.53116122  0.56551639    -0.86000
O1289       O  0.26912953  0.58922341  0.59277475    -0.72700
O1290       O  0.27520583  0.52939653  0.59183292    -0.84900
Zr1291     Zr  0.02068145  0.56169634  0.65818384     2.26400
Zr1292     Zr  0.31915538  0.62330366  0.60714275     2.06300
Zr1293     Zr  0.32999364  0.50011240  0.60440984     2.10000
Zr1294     Zr  0.06431133  0.56641439  0.57914573     1.78800
O1295       O  0.29177948  0.95748474  0.62215396    -0.93700
O1296       O  0.09418429  0.61351417  0.56256669    -0.41500
O1297       O  0.04669903  0.53397703  0.61839028    -0.78100
O1298       O  0.04092099  0.59391163  0.61948908    -0.96800
O1299       O  0.29979708  0.59204256  0.64622323    -0.90100
O1300       O  0.30509323  0.52712783  0.64418679    -0.92900
C1301       C  0.04131197  0.55829487  0.50805844     1.00800
C1302       C  0.27908056  0.98394796  0.54324605     1.13700
C1303       C  0.27222817  0.63806866  0.54314349     1.04500
O1304       O  0.02507842  0.66552541  0.59025405    -0.95100
O1305       O  0.01774903  0.64665245  0.64786135    -0.90800
O1306       O  0.03540163  0.61060975  0.68020749    -0.84000
C1307       C  0.03358526  0.63835590  0.67137886     1.11200
O1308       O  0.19246658  0.54509938  0.60692013    -0.97100
Zr1309     Zr  0.25128590  0.55727767  0.63197051     1.88900
O1310       O  0.31158618  0.55829915  0.69891534    -0.73700
O1311       O  0.27282527  0.65833951  0.62791170    -0.53000
O1312       O  0.20747650  0.59960901  0.64012664    -0.97700
O1313       O  0.21652048  0.51269157  0.64939883    -0.54900
O1314       O  0.24993975  0.56037276  0.68368975    -0.74200
C1315       C  0.27538882  0.55850569  0.70325183     0.98100
O1316       O  0.08337645  0.56241736  0.68098108    -0.63100
O1317       O  0.04382280  0.96622027  0.58318022    -0.57900
O1318       O  0.03756948  0.51276891  0.67968837    -0.94500
O1319       O  0.02808705  0.97738089  0.64470627    -0.93000
O1320       O  0.10936193  0.52489364  0.57104692    -0.93300
O1321       O  0.12550890  0.57791501  0.60112268    -0.92100
C1322       C  0.03898379  0.98539458  0.66968461     1.16900
H1323       H  0.02432402  0.51802527  0.55014560     0.32900
H1324       H  0.06131137  0.60717472  0.62573160     0.43700
H1325       H  0.29891434  0.51315655  0.65942035     0.37300
H1326       H  0.24679203  0.60050568  0.58688273     0.33700
H1327       H  0.11601601  0.60677112  0.55071747     0.25500
H1328       H  0.28034189  0.67873771  0.62068608     0.31500
H1329       H  0.18899729  0.59173723  0.65430383     0.37400
H1330       H  0.12616952  0.53227008  0.55554180     0.31800
H1331       H  0.06842943  0.97297019  0.59143508     0.30700
H1332       H  0.30221495  0.93913697  0.61253013     0.32400
H1333       H  0.19444344  0.52118981  0.65994997     0.31400
H1334       H  0.12129568  0.57487566  0.62178731     0.35400
H1335       H  0.09763773  0.54535263  0.67207059     0.28100
H1336       H  0.24285210  0.56658323  0.50598030     0.32300
H1337       H  0.19929998  0.54581283  0.58645222     0.35200
H1338       H  0.03903297  0.94600403  0.59196291     0.27800
H1339       H  0.09633292  0.58089122  0.67356177     0.40700
H1340       H  0.05160914  0.65918982  0.59445073     0.30700
H1341       H  0.07591299  0.62234531  0.54874837     0.38300
H1342       H  0.23280318  0.50355493  0.66436842     0.30200
H1343       H  0.24851349  0.65371536  0.61805749     0.30200
H1344       H  0.21835929  0.57093405  0.53380945     0.30500
C1345       C  0.38773683  0.42924591  0.22997036     0.02600
C1346       C  0.41165617  0.40785898  0.21633622    -0.13500
C1347       C  0.42347892  0.41267143  0.18798878     0.00100
C1348       C  0.41224363  0.43950818  0.17409851    -0.12100
C1349       C  0.38824826  0.46073955  0.18731074     0.02600
C1350       C  0.37601096  0.45565524  0.21531646    -0.11500
H1351       H  0.41977223  0.38711992  0.22739811     0.08200
H1352       H  0.42039887  0.44326224  0.15207816     0.05700
H1353       H  0.35659151  0.47167007  0.22537557     0.05600
C1354       C  0.59268755  0.42902272  0.48320444     0.02600
C1355       C  0.60553793  0.45487390  0.49806597    -0.13500
C1356       C  0.59521621  0.45921651  0.02647679     0.00100
C1357       C  0.57197688  0.43778034  0.04009778    -0.12100
C1358       C  0.55880926  0.41158890  0.02573993     0.02600
C1359       C  0.56899419  0.40752240  0.49695428    -0.11500
H1360       H  0.62437596  0.47112869  0.48772563     0.08200
H1361       H  0.56540430  0.44116945  0.06246571     0.05700
H1362       H  0.55962979  0.38734225  0.48551298     0.05600
Zr1363     Zr  0.62706705  0.41988925  0.30323777     2.17500
O1364       O  0.56897772  0.41782530  0.27466060    -0.51800
O1365       O  0.67077049  0.42356173  0.26299055    -0.75000
O1366       O  0.61064904  0.47015053  0.28359520    -0.81800
O1367       O  0.61688307  0.33558841  0.31705012    -0.83600
O1368       O  0.63094863  0.00594539  0.31542781    -0.79200
O1369       O  0.60588391  0.37132531  0.28287910    -0.90800
O1370       O  0.39872155  0.42041046  0.27881887    -0.76800
O1371       O  0.34849326  0.44897996  0.31580490    -0.86300
O1372       O  0.34172460  0.38416199  0.31702078    -0.86000
O1373       O  0.60601244  0.45178469  0.34204492    -0.72700
O1374       O  0.60117029  0.39203364  0.34318000    -0.84900
Zr1375     Zr  0.35162080  0.41954692  0.40894346     2.26400
Zr1376     Zr  0.66169559  0.48051626  0.35457152     2.06300
Zr1377     Zr  0.65040339  0.35754486  0.35753068     2.10000
Zr1378     Zr  0.39605272  0.41332136  0.33003400     1.78800
O1379       O  0.60283124  0.32358702  0.37819602    -0.93700
O1380       O  0.44503606  0.45218117  0.32331738    -0.41500
O1381       O  0.37180890  0.38671366  0.37060906    -0.78100
O1382       O  0.37816835  0.44630091  0.36878949    -0.96800
O1383       O  0.63638478  0.45417074  0.39472429    -0.90100
O1384       O  0.63086274  0.38901909  0.39656819    -0.92900
C1385       C  0.37376775  0.42377304  0.25909604     1.00800
C1386       C  0.60378731  0.34391342  0.29264128     1.13700
C1387       C  0.61439612  0.49792790  0.29222880     1.04500
O1388       O  0.37524892  0.01529760  0.33420198    -0.95100
O1389       O  0.36127414  0.00436652  0.39377298    -0.90800
O1390       O  0.36952185  0.46939394  0.42892991    -0.84000
C1391       C  0.37203500  0.49660802  0.41867763     1.11200
O1392       O  0.52258338  0.43340390  0.35790849    -0.97100
Zr1393     Zr  0.58255741  0.42395757  0.38237158     1.88900
O1394       O  0.64198990  0.42447086  0.44946374    -0.73700
O1395       O  0.62252193  0.02110921  0.37468556    -0.53000
O1396       O  0.55125036  0.47050148  0.39885832    -0.97700
O1397       O  0.53693524  0.38306484  0.39156005    -0.54900
O1398       O  0.58039885  0.42270271  0.43411607    -0.74200
C1399       C  0.60576059  0.42463687  0.45372540     0.98100
O1400       O  0.41279350  0.41937679  0.43399580    -0.63100
O1401       O  0.35537026  0.31437497  0.34118613    -0.57900
O1402       O  0.36618282  0.37014450  0.43041829    -0.94500
O1403       O  0.35134593  0.33436665  0.39698954    -0.93000
O1404       O  0.42273802  0.36571363  0.31172879    -0.93300
O1405       O  0.45540108  0.39873026  0.35319456    -0.92100
C1406       C  0.36588816  0.34252478  0.42101143     1.16900
H1407       H  0.34761959  0.37033072  0.30156904     0.32900
H1408       H  0.40048922  0.45765207  0.37467498     0.43700
H1409       H  0.62263595  0.37654461  0.41240815     0.37300
H1410       H  0.58574272  0.46518764  0.33591806     0.33700
H1411       H  0.46318369  0.44300058  0.30957461     0.25500
H1412       H  0.63066017  0.03991088  0.36463831     0.31500
H1413       H  0.52841887  0.46338733  0.40939107     0.38200
H1414       H  0.44531841  0.37196683  0.30045604     0.31800
H1415       H  0.33832303  0.29639672  0.34275229     0.30700
H1416       H  0.61322253  0.30276602  0.37529500     0.32400
H1417       H  0.51868996  0.39188100  0.40543959     0.31400
H1418       H  0.45089922  0.40264872  0.37371009     0.35400
H1419       H  0.42585210  0.40031502  0.42812201     0.28100
H1420       H  0.57591862  0.42664319  0.25592990     0.32300
H1421       H  0.52743775  0.42703258  0.33797575     0.35200
H1422       H  0.35861109  0.31746873  0.32042924     0.27800
H1423       H  0.42809338  0.43561856  0.42474891     0.40700
H1424       H  0.39984572  0.00922673  0.34290102     0.30700
H1425       H  0.43218201  0.46856851  0.31240272     0.38300
H1426       H  0.55135212  0.36765735  0.40261901     0.30200
H1427       H  0.59643979  0.01700775  0.36752054     0.30200
H1428       H  0.55145294  0.43291341  0.28340962     0.30500
C1429       C  0.42108135  0.30188561  0.47997611     0.02600
C1430       C  0.39722563  0.32323964  0.46628177    -0.13500
C1431       C  0.38573699  0.31851810  0.43782182     0.00100
C1432       C  0.39725395  0.29165478  0.42386528    -0.12100
C1433       C  0.42124773  0.27039963  0.43712398     0.02600
C1434       C  0.43306661  0.27551955  0.46526064    -0.11500
H1435       H  0.38900565  0.34395786  0.47738352     0.08200
H1436       H  0.38934601  0.28790914  0.40179168     0.05700
H1437       H  0.45255822  0.25961857  0.47535773     0.05600
C1438       C  0.55092019  0.30215341  0.23265759     0.02600
C1439       C  0.57377528  0.32408960  0.24670133    -0.13500
C1440       C  0.58331211  0.32021137  0.27572499     0.00100
C1441       C  0.57024908  0.29396499  0.28990974    -0.12100
C1442       C  0.54752172  0.27228678  0.27607495     0.02600
C1443       C  0.53811730  0.27626084  0.24744135    -0.11500
H1444       H  0.58290014  0.34438700  0.23537926     0.08200
H1445       H  0.57646781  0.29074724  0.31234799     0.05700
H1446       H  0.51970792  0.25979322  0.23692934     0.05600
Zr1447     Zr  0.45828947  0.31197555  0.15885183     2.17500
O1448       O  0.39960161  0.31541974  0.18665570    -0.51800
O1449       O  0.50166223  0.30758413  0.19908625    -0.75000
O1450       O  0.44009764  0.26220624  0.17870480    -0.81800
O1451       O  0.45946749  0.39731950  0.14777448    -0.83600
O1452       O  0.45095520  0.22669150  0.14420303    -0.79200
O1453       O  0.44110155  0.36096674  0.17964383    -0.90800
O1454       O  0.56309415  0.30751088  0.18341671    -0.76800
O1455       O  0.50691472  0.27757387  0.14432551    -0.86300
O1456       O  0.51190549  0.34280657  0.14634268    -0.86000
O1457       O  0.43117908  0.28479594  0.11910249    -0.72700
O1458       O  0.43783092  0.34479505  0.12059130    -0.84900
Zr1459     Zr  0.51546898  0.31189163  0.05283963     2.26400
Zr1460     Zr  0.48114825  0.25114321  0.10419618     2.06300
Zr1461     Zr  0.49220632  0.37421091  0.10741546     2.10000
Zr1462     Zr  0.56023795  0.30825326  0.13171530     1.78800
O1463       O  0.45386449  0.41611292  0.08870285    -0.93700
O1464       O  0.59562814  0.26231654  0.14442828    -0.41500
O1465       O  0.54140467  0.33999331  0.09259799    -0.78100
O1466       O  0.53642688  0.28028069  0.09170296    -0.96800
O1467       O  0.46095215  0.28253420  0.06564743    -0.90100
O1468       O  0.46715797  0.34720882  0.06728206    -0.92900
C1469       C  0.53787355  0.30648094  0.20317072     1.00800
C1470       C  0.44327532  0.38879647  0.17109821     1.13700
C1471       C  0.43925212  0.23470997  0.16897051     1.04500
O1472       O  0.51687794  0.20664277  0.12029495    -0.95100
O1473       O  0.51392525  0.22586611  0.06570372    -0.90800
O1474       O  0.53169894  0.26155440  0.03301233    -0.84000
C1475       C  0.52973553  0.23389250  0.04227558     1.11200
O1476       O  0.35608947  0.33172589  0.10701951    -0.97100
Zr1477     Zr  0.41305189  0.31768595  0.08040570     1.88900
O1478       O  0.47154433  0.30807161  0.01268836    -0.73700
O1479       O  0.43119717  0.22076639  0.08185378    -0.53000
O1480       O  0.36609645  0.27717444  0.07428550    -0.97700
O1481       O  0.37920626  0.36231585  0.06203386    -0.54900
O1482       O  0.41039739  0.31075928  0.02899582    -0.74200
C1483       C  0.43517019  0.30757243  0.00905932     0.98100
O1484       O  0.57637229  0.31170196  0.02722737    -0.63100
O1485       O  0.54023892  0.40791194  0.12804740    -0.57900
O1486       O  0.53454560  0.36085995  0.03208122    -0.94500
O1487       O  0.52571688  0.39613188  0.06710636    -0.93000
O1488       O  0.60192368  0.35107532  0.14309512    -0.93300
O1489       O  0.62048365  0.30195797  0.10684833    -0.92100
C1490       C  0.53784934  0.38801751  0.04236513     1.16900
H1491       H  0.52027037  0.35525362  0.16219310     0.32900
H1492       H  0.55693561  0.26708221  0.08559766     0.43700
H1493       H  0.46100797  0.36109068  0.05196832     0.37300
H1494       H  0.40906984  0.27332766  0.12520660     0.33700
H1495       H  0.61541919  0.26935982  0.15800443     0.25500
H1496       H  0.43894656  0.19932530  0.08531940     0.31500
H1497       H  0.34909698  0.28458551  0.05891664     0.37400
H1498       H  0.62116926  0.34246874  0.15629064     0.31800
H1499       H  0.56380754  0.40368143  0.11708219     0.30700
H1500       H  0.46483058  0.43476984  0.09743223     0.32400
H1501       H  0.35571265  0.35396088  0.05322802     0.31400
H1502       H  0.61552941  0.30974143  0.08739235     0.35400
H1503       H  0.59180541  0.32819789  0.03598753     0.28100
H1504       H  0.40578301  0.30655583  0.20551436     0.32300
H1505       H  0.36286460  0.32844365  0.12727593     0.35200
H1506       H  0.53255702  0.42872498  0.12208694     0.27800
H1507       H  0.58980652  0.29288651  0.03326843     0.40700
H1508       H  0.54402289  0.21263138  0.11845333     0.30700
H1509       H  0.57773360  0.25017899  0.15619463     0.38300
H1510       H  0.39448488  0.36968572  0.04568478     0.30200
H1511       H  0.40846568  0.22377442  0.09406996     0.30200
H1512       H  0.38179630  0.30065221  0.17773690     0.30500
C1513       C  0.42357876  0.17874604  0.22958689     0.02600
C1514       C  0.39914200  0.15755630  0.21622150    -0.13500
C1515       C  0.38702124  0.16230461  0.18794163     0.00100
C1516       C  0.39883511  0.18883832  0.17366961    -0.12100
C1517       C  0.42317635  0.21004559  0.18665498     0.02600
C1518       C  0.43537295  0.20506436  0.21472256    -0.11500
H1519       H  0.39088765  0.13694139  0.22743442     0.08200
H1520       H  0.39071587  0.19240682  0.15161638     0.05700
H1521       H  0.45492791  0.22106697  0.22465362     0.05600
C1522       C  0.55309514  0.17909228  0.48284309     0.02600
C1523       C  0.57580743  0.15747504  0.49723771    -0.13500
C1524       C  0.58460686  0.16152210  0.02618924     0.00100
C1525       C  0.57048977  0.18766442  0.04019276    -0.12100
C1526       C  0.54787011  0.20916793  0.02587603     0.02600
C1527       C  0.53966344  0.20506850  0.49729466    -0.11500
H1528       H  0.58549876  0.13721202  0.48607887     0.08200
H1529       H  0.57590985  0.19092001  0.06274732     0.05700
H1530       H  0.52144914  0.22133197  0.48637760     0.05600
Zr1531     Zr  0.46059900  0.16967336  0.40916278     2.17500
O1532       O  0.40249059  0.17132875  0.43778210    -0.51800
O1533       O  0.50429564  0.17344672  0.44915856    -0.75000
O1534       O  0.44394319  0.12020449  0.42954625    -0.81800
O1535       O  0.44902119  0.25391123  0.39462402    -0.83600
O1536       O  0.46367708  0.08372642  0.39827737    -0.79200
O1537       O  0.44056692  0.21862426  0.42956909    -0.90800
O1538       O  0.56582132  0.17323671  0.43365108    -0.76800
O1539       O  0.51509129  0.13970409  0.39686105    -0.86300
O1540       O  0.50867708  0.20476677  0.39486097    -0.86000
O1541       O  0.43994243  0.13708846  0.37063284    -0.72700
O1542       O  0.43309350  0.19656560  0.36944345    -0.84900
Zr1543     Zr  0.51730694  0.16995988  0.30326857     2.26400
Zr1544     Zr  0.49525002  0.10797930  0.35794626     2.06300
Zr1545     Zr  0.48228542  0.23102573  0.35507828     2.10000
Zr1546     Zr  0.56266919  0.17506907  0.38192498     1.78800
O1547       O  0.43347857  0.26303977  0.33334154    -0.93700
O1548       O  0.60861727  0.13439801  0.39097634    -0.41500
O1549       O  0.53745154  0.20230589  0.34189214    -0.78100
O1550       O  0.54413941  0.14264603  0.34314138    -0.96800
O1551       O  0.46961747  0.13421600  0.31749197    -0.90100
O1552       O  0.46295801  0.19955847  0.31636994    -0.92900
C1553       C  0.54047157  0.17433236  0.45333471     1.00800
C1554       C  0.43799698  0.24588607  0.41953491     1.13700
C1555       C  0.44655933  0.09230458  0.42119205     1.04500
O1556       O  0.54462170  0.07514604  0.37791203    -0.95100
O1557       O  0.52756272  0.08550409  0.31704292    -0.90800
O1558       O  0.53633568  0.12099387  0.28226226    -0.84000
C1559       C  0.53960885  0.09373053  0.29228025     1.11200
O1560       O  0.35584135  0.15031222  0.35359737    -0.97100
Zr1561     Zr  0.41545653  0.16388124  0.33021437     1.88900
O1562       O  0.47428007  0.17363439  0.26249618    -0.73700
O1563       O  0.45765488  0.06490977  0.34062209    -0.53000
O1564       O  0.38671135  0.11684175  0.31253221    -0.97700
O1565       O  0.36752854  0.20332947  0.32228597    -0.54900
O1566       O  0.41320751  0.16922740  0.27853784    -0.74200
C1567       C  0.43793461  0.17316063  0.25867637     0.98100
O1568       O  0.57858396  0.17008827  0.27825978    -0.63100
O1569       O  0.51907252  0.27524573  0.37092915    -0.57900
O1570       O  0.53258694  0.22005372  0.28353603    -0.94500
O1571       O  0.51544571  0.25563154  0.31661731    -0.93000
O1572       O  0.59363364  0.22242265  0.39667963    -0.93300
O1573       O  0.62177348  0.18523336  0.35647822    -0.92100
C1574       C  0.53058480  0.24760834  0.29293038     1.16900
H1575       H  0.51496989  0.21888441  0.41000452     0.32900
H1576       H  0.56646114  0.13144950  0.33703505     0.43700
H1577       H  0.45435768  0.21259820  0.30107663     0.37300
H1578       H  0.41972316  0.12374138  0.37698030     0.33700
H1579       H  0.62907858  0.14425081  0.40229070     0.25500
H1580       H  0.46548821  0.04732362  0.35253919     0.31500
H1581       H  0.36579755  0.12364413  0.29983469     0.37400
H1582       H  0.61478333  0.21592927  0.40929267     0.31800
H1583       H  0.50126202  0.29275501  0.36953841     0.30700
H1584       H  0.43573059  0.28301935  0.34314391     0.32400
H1585       H  0.34822689  0.19347415  0.30988322     0.31400
H1586       H  0.61418031  0.18649166  0.33619243     0.35400
H1587       H  0.59146575  0.18936294  0.28374176     0.28100
H1588       H  0.40957633  0.16309852  0.45671674     0.32300
H1589       H  0.35852977  0.15843906  0.37320310     0.35200
H1590       H  0.52295069  0.27228903  0.39164349     0.27800
H1591       H  0.59414762  0.15418322  0.28775727     0.40700
H1592       H  0.54131593  0.07666039  0.39882813     0.30700
H1593       H  0.59566207  0.12064712  0.40464773     0.38300
H1594       H  0.38018063  0.21846286  0.30977264     0.30200
H1595       H  0.43115959  0.06944507  0.34662075     0.30200
H1596       H  0.38519053  0.15585966  0.42935443     0.30500
C1597       C  0.38840076  0.05273436  0.47893305     0.02600
C1598       C  0.37648111  0.02640650  0.46421174    -0.13500
C1599       C  0.38873230  0.02117200  0.43623849     0.00100
C1600       C  0.41341803  0.04213551  0.42321057    -0.12100
C1601       C  0.42555796  0.06863240  0.43749004     0.02600
C1602       C  0.41315339  0.07367764  0.46564830    -0.11500
H1603       H  0.35678682  0.01057048  0.47419699     0.08200
H1604       H  0.42161111  0.03842597  0.40118864     0.05700
H1605       H  0.42163050  0.09425293  0.47688665     0.05600
C1606       C  0.59569867  0.05396054  0.23280388     0.02600
C1607       C  0.57160516  0.07511199  0.24669174    -0.13500
C1608       C  0.56076786  0.07033495  0.27534261     0.00100
C1609       C  0.57372857  0.04380211  0.28924594    -0.12100
C1610       C  0.59756534  0.02275650  0.27550617     0.02600
C1611       C  0.60843377  0.02784083  0.24731951    -0.11500
H1612       H  0.56247120  0.09551477  0.23554580     0.08200
H1613       H  0.56660918  0.03988595  0.31143158     0.05700
H1614       H  0.62759141  0.01187937  0.23688790     0.05600
Zr1615     Zr  0.62849876  0.06131430  0.05288254     2.17500
O1616       O  0.57000874  0.05738626  0.02484411    -0.51800
O1617       O  0.67167642  0.05815126  0.01212652    -0.75000
O1618       O  0.60747811  0.11054853  0.03343277    -0.81800
O1619       O  0.62811831  0.47574689  0.06672751    -0.83600
O1620       O  0.61880990  0.14655337  0.06737900    -0.79200
O1621       O  0.61014610  0.01143308  0.03411726    -0.90800
O1622       O  0.39955765  0.06171625  0.02763819    -0.76800
O1623       O  0.34350310  0.09666810  0.06654283    -0.86300
O1624       O  0.34931514  0.03131148  0.06540699    -0.86000
O1625       O  0.60230596  0.08922008  0.09278009    -0.72700
O1626       O  0.60848452  0.02953524  0.09186667    -0.84900
Zr1627     Zr  0.35387277  0.06176240  0.15818748     2.26400
Zr1628     Zr  0.65226076  0.12331799  0.10717230     2.06300
Zr1629     Zr  0.66321355  0.00020828  0.10441543     2.10000
Zr1630     Zr  0.39747849  0.06665462  0.07906536     1.78800
O1631       O  0.62576295  0.45713567  0.12192296    -0.93700
O1632       O  0.42695264  0.11336800  0.06116806    -0.41500
O1633       O  0.37997639  0.03418633  0.11832120    -0.78100
O1634       O  0.37407473  0.09407586  0.11948033    -0.96800
O1635       O  0.63304385  0.09208687  0.14628176    -0.90100
O1636       O  0.63839954  0.02721683  0.14425542    -0.92900
C1637       C  0.37448536  0.05843991  0.00799860     1.00800
C1638       C  0.61231226  0.48385859  0.04334166     1.13700
C1639       C  0.60541586  0.13805262  0.04311620     1.04500
O1640       O  0.35830060  0.16508527  0.08944441    -0.95100
O1641       O  0.35085541  0.14665458  0.14791637    -0.90800
O1642       O  0.36867211  0.11062921  0.18022221    -0.84000
C1643       C  0.36675000  0.13837131  0.17141956     1.11200
O1644       O  0.52556993  0.04541839  0.10709530    -0.97100
Zr1645     Zr  0.58455330  0.05732823  0.13204296     1.88900
O1646       O  0.64491419  0.05822984  0.19899127    -0.73700
O1647       O  0.60562948  0.15751245  0.12874711    -0.53000
O1648       O  0.54098490  0.09972946  0.14059433    -0.97700
O1649       O  0.54982129  0.01247283  0.14888031    -0.54900
O1650       O  0.58326978  0.06046033  0.18377152    -0.74200
C1651       C  0.60871586  0.05852882  0.20333486     0.98100
O1652       O  0.41626057  0.06193440  0.18148643    -0.63100
O1653       O  0.37717597  0.46659939  0.08264712    -0.57900
O1654       O  0.37081484  0.01280354  0.17962430    -0.94500
O1655       O  0.36117637  0.47733651  0.14479714    -0.93000
O1656       O  0.44349884  0.02575046  0.07125643    -0.93300
O1657       O  0.45813811  0.07869312  0.10160333    -0.92100
C1658       C  0.37234098  0.48536665  0.16970929     1.16900
H1659       H  0.35752920  0.01819486  0.05000979     0.32900
H1660       H  0.39446271  0.10734112  0.12572452     0.43700
H1661       H  0.63226603  0.01324247  0.15949686     0.37300
H1662       H  0.57994789  0.10047859  0.08689126     0.33700
H1663       H  0.44758168  0.10632606  0.04830825     0.25500
H1664       H  0.61290791  0.17812347  0.12192290     0.31500
H1665       H  0.51970639  0.09067273  0.15161714     0.37400
H1666       H  0.46170927  0.03410374  0.05712280     0.31800
H1667       H  0.40159973  0.47240675  0.09177522     0.30700
H1668       H  0.63815449  0.43875537  0.11376402     0.32400
H1669       H  0.52809324  0.02080024  0.15994015     0.31400
H1670       H  0.45468163  0.07269015  0.12177837     0.35400
H1671       H  0.43068513  0.04510717  0.17233054     0.28100
H1672       H  0.57582136  0.06676487  0.00613538     0.32300
H1673       H  0.53237501  0.04608361  0.08662117     0.35200
H1674       H  0.37143558  0.44603220  0.09033494     0.27800
H1675       H  0.42932919  0.08058903  0.17459340     0.40700
H1676       H  0.38479567  0.15876192  0.09377564     0.30700
H1677       H  0.40777713  0.12254584  0.04825696     0.38300
H1678       H  0.56640162  0.00284988  0.16339245     0.30200
H1679       H  0.58135279  0.15295292  0.11882300     0.30200
H1680       H  0.55156867  0.07143781  0.03403997     0.30500
C1681       C  0.38757586  0.42927119  0.72996247     0.02600
C1682       C  0.41129657  0.40779262  0.71630073    -0.13500
C1683       C  0.42319367  0.41261257  0.68799102     0.00100
C1684       C  0.41216117  0.43950565  0.67412034    -0.12100
C1685       C  0.38821920  0.46077427  0.68731991     0.02600
C1686       C  0.37597679  0.45573357  0.71533232    -0.11500
H1687       H  0.41925008  0.38699631  0.72733418     0.08200
H1688       H  0.42040520  0.44326841  0.65211938     0.05700
H1689       H  0.35665182  0.47181041  0.72540683     0.05600
C1690       C  0.59276793  0.42892056  0.98319285     0.02600
C1691       C  0.60551539  0.45481085  0.99806175    -0.13500
C1692       C  0.59545555  0.45918745  0.52652739     0.00100
C1693       C  0.57230068  0.43774495  0.54021112    -0.12100
C1694       C  0.55894989  0.41162411  0.52584841     0.02600
C1695       C  0.56899550  0.40744698  0.99688857    -0.11500
H1696       H  0.62442537  0.47103773  0.98776051     0.08200
H1697       H  0.56589408  0.44109417  0.56261170     0.05700
H1698       H  0.55971362  0.38723761  0.98545167     0.05600
Zr1699     Zr  0.62716234  0.41986798  0.80331433     2.17500
O1700       O  0.56923073  0.41790072  0.77454908    -0.51800
O1701       O  0.67076492  0.42365279  0.76303465    -0.75000
O1702       O  0.61063997  0.47002559  0.78369552    -0.81800
O1703       O  0.61690408  0.33557921  0.81703305    -0.83600
O1704       O  0.63103551  0.00590012  0.81533613    -0.79200
O1705       O  0.60567273  0.37139175  0.78298869    -0.90800
O1706       O  0.39867097  0.42025755  0.77876657    -0.76800
O1707       O  0.34864449  0.44892716  0.81586336    -0.86300
O1708       O  0.34180275  0.38416088  0.81699507    -0.86000
O1709       O  0.60618923  0.45173897  0.84216784    -0.72700
O1710       O  0.60119705  0.39199150  0.84317926    -0.84900
Zr1711     Zr  0.35183513  0.41950754  0.90896900     2.26400
Zr1712     Zr  0.66193430  0.48043389  0.85467962     2.06300
Zr1713     Zr  0.65048780  0.35754058  0.85747942     2.10000
Zr1714     Zr  0.39618702  0.41324774  0.83002333     1.78800
O1715       O  0.60264896  0.32390308  0.87821714    -0.93700
O1716       O  0.44529592  0.45192024  0.82282116    -0.41500
O1717       O  0.37183681  0.38668313  0.87057143    -0.78100
O1718       O  0.37842756  0.44627249  0.86880653    -0.96800
O1719       O  0.63659692  0.45405041  0.89480938    -0.90100
O1720       O  0.63114123  0.38896529  0.89660152    -0.92900
C1721       C  0.37368153  0.42379162  0.75908858     1.00800
C1722       C  0.60367923  0.34395230  0.79268069     1.13700
C1723       C  0.61455817  0.49778051  0.79229337     1.04500
O1724       O  0.37562282  0.01487824  0.83390093    -0.95100
O1725       O  0.36117235  0.00433853  0.89381496    -0.90800
O1726       O  0.36995490  0.46927160  0.92904398    -0.84000
C1727       C  0.37228330  0.49651487  0.91883049     1.11200
O1728       O  0.52222442  0.43310397  0.85868173    -0.97100
Zr1729     Zr  0.58275078  0.42383550  0.88245832     1.88900
O1730       O  0.64215523  0.42477080  0.94944854    -0.73700
O1731       O  0.62306363  0.02143703  0.87452859    -0.53000
O1732       O  0.55178504  0.47057782  0.89882420    -0.97700
O1733       O  0.53738176  0.38272628  0.89153573    -0.54900
O1734       O  0.58059428  0.42204719  0.93416665    -0.74200
C1735       C  0.60592947  0.42448939  0.95373971     0.98100
O1736       O  0.41300303  0.41878761  0.93404870    -0.63100
O1737       O  0.35480265  0.31412160  0.84102962    -0.57900
O1738       O  0.36614389  0.36997193  0.93029025    -0.94500
O1739       O  0.35134472  0.33417400  0.89685099    -0.93000
O1740       O  0.42264855  0.36540036  0.81207378    -0.93300
O1741       O  0.45534210  0.39877920  0.85352414    -0.92100
C1742       C  0.36586209  0.34234880  0.92088193     1.16900
H1743       H  0.34766206  0.37034097  0.80152734     0.32900
H1744       H  0.40075767  0.45762341  0.87467661     0.43700
H1745       H  0.62295203  0.37645660  0.91242738     0.37300
H1746       H  0.58594016  0.46518237  0.83608033     0.33700
H1747       H  0.46272228  0.44293860  0.80845616     0.25500
H1748       H  0.63162817  0.04018040  0.86458299     0.31500
H1749       H  0.52956685  0.46358564  0.91012964     0.38200
H1750       H  0.44512097  0.37150180  0.80061229     0.31800
H1751       H  0.33740004  0.29633450  0.84229887     0.30700
H1752       H  0.61345190  0.30310140  0.87617566     0.32400
H1753       H  0.51926827  0.39132233  0.90562949     0.31400
H1754       H  0.45048266  0.40237469  0.87404595     0.35400
H1755       H  0.42613005  0.39993422  0.92768792     0.28100
H1756       H  0.57639000  0.42646155  0.75575909     0.32300
H1757       H  0.52764333  0.42968969  0.83821126     0.35200
H1758       H  0.35836955  0.31740634  0.82032731     0.27800
H1759       H  0.42826829  0.43533393  0.92525070     0.40700
H1760       H  0.39970378  0.01026838  0.84406407     0.30700
H1761       H  0.43214598  0.46864984  0.81257172     0.38300
H1762       H  0.55198280  0.36722181  0.90233809     0.30200
H1763       H  0.59698385  0.01764671  0.86721326     0.30200
H1764       H  0.55177324  0.43318237  0.78307888     0.30500
C1765       C  0.42098766  0.30184935  0.97996788     0.02600
C1766       C  0.39709440  0.32314437  0.96622316    -0.13500
C1767       C  0.38572684  0.31838457  0.93773565     0.00100
C1768       C  0.39744696  0.29156859  0.92380486    -0.12100
C1769       C  0.42144409  0.27036937  0.93714024     0.02600
C1770       C  0.43307735  0.27549079  0.96530595    -0.11500
H1771       H  0.38877839  0.34385483  0.97729723     0.08200
H1772       H  0.38969197  0.28782023  0.90170090     0.05700
H1773       H  0.45256301  0.25962254  0.97545571     0.05600
C1774       C  0.55065529  0.30230183  0.73271965     0.02600
C1775       C  0.57361703  0.32418810  0.74673516    -0.13500
C1776       C  0.58319404  0.32027568  0.77574581     0.00100
C1777       C  0.57014162  0.29401764  0.78990248    -0.12100
C1778       C  0.54734417  0.27239575  0.77605523     0.02600
C1779       C  0.53787310  0.27640450  0.74746223    -0.11500
H1780       H  0.58276099  0.34448047  0.73541438     0.08200
H1781       H  0.57639071  0.29076368  0.81233170     0.05700
H1782       H  0.51940002  0.25997283  0.73695961     0.05600
Zr1783     Zr  0.45804388  0.31195327  0.65896228     2.17500
O1784       O  0.39874234  0.31500227  0.68610419    -0.51800
O1785       O  0.50129564  0.30771085  0.69925413    -0.75000
O1786       O  0.44007855  0.26215771  0.67901396    -0.81800
O1787       O  0.45916533  0.39722985  0.64783688    -0.83600
O1788       O  0.45145893  0.22671743  0.64455517    -0.79200
O1789       O  0.44078075  0.36090640  0.67973883    -0.90800
O1790       O  0.56271667  0.30767042  0.68353120    -0.76800
O1791       O  0.50685539  0.27769786  0.64439821    -0.86300
O1792       O  0.51162451  0.34296070  0.64652882    -0.86000
O1793       O  0.43097305  0.28494334  0.61912893    -0.72700
O1794       O  0.43774398  0.34482217  0.62069122    -0.84900
Zr1795     Zr  0.51537908  0.31204975  0.55298720     2.26400
Zr1796     Zr  0.48096058  0.25131813  0.60429229     2.06300
Zr1797     Zr  0.49210526  0.37430848  0.60751572     2.10000
Zr1798     Zr  0.56010708  0.30857140  0.63186285     1.78800
O1799       O  0.45415573  0.41652798  0.58903060    -0.93700
O1800       O  0.59701527  0.26347840  0.64473999    -0.41500
O1801       O  0.54134978  0.34021266  0.59269603    -0.78100
O1802       O  0.53628076  0.28048301  0.59191674    -0.96800
O1803       O  0.46081773  0.28273243  0.56575093    -0.90100
O1804       O  0.46708836  0.34737080  0.56735465    -0.92900
C1805       C  0.53751942  0.30664171  0.70329038     1.00800
C1806       C  0.44294654  0.38871877  0.67114673     1.13700
C1807       C  0.43953215  0.23464137  0.66928980     1.04500
O1808       O  0.51585941  0.20595221  0.61923272    -0.95100
O1809       O  0.51398984  0.22604576  0.56594027    -0.90800
O1810       O  0.53175366  0.26170640  0.53323444    -0.84000
C1811       C  0.52981265  0.23404990  0.54251569     1.11200
O1812       O  0.35558125  0.33137930  0.60686994    -0.97100
Zr1813     Zr  0.41291021  0.31792896  0.58041644     1.88900
O1814       O  0.47159192  0.30811968  0.51275819    -0.73700
O1815       O  0.43026656  0.22175490  0.58193375    -0.53000
O1816       O  0.36540929  0.27794998  0.57351146    -0.97700
O1817       O  0.38103815  0.36377289  0.56256598    -0.54900
O1818       O  0.41040701  0.31076188  0.52901070    -0.74200
C1819       C  0.43522486  0.30756762  0.50909473     0.98100
O1820       O  0.57623971  0.31253234  0.52737047    -0.63100
O1821       O  0.54057030  0.40786004  0.62775257    -0.57900
O1822       O  0.53436006  0.36098981  0.53214373    -0.94500
O1823       O  0.52584566  0.39619622  0.56725844    -0.93000
O1824       O  0.60143613  0.35155777  0.64353048    -0.93300
O1825       O  0.62001481  0.30238257  0.60652214    -0.92100
C1826       C  0.53788240  0.38810230  0.54247990     1.16900
H1827       H  0.51991851  0.35542353  0.66239053     0.32900
H1828       H  0.55681816  0.26729734  0.58584395     0.43700
H1829       H  0.46105955  0.36127233  0.55203253     0.37300
H1830       H  0.40887314  0.27345145  0.62521541     0.33700
H1831       H  0.61697434  0.27110163  0.65790543     0.25500
H1832       H  0.43765733  0.20019709  0.58519836     0.31500
H1833       H  0.34740870  0.28646745  0.55932196     0.37400
H1834       H  0.62151162  0.34273526  0.65588809     0.31800
H1835       H  0.56444377  0.40223115  0.61774128     0.30700
H1836       H  0.46332187  0.43476673  0.59951312     0.32400
H1837       H  0.35616270  0.35648807  0.55517586     0.31400
H1838       H  0.61603671  0.31313549  0.58820675     0.35400
H1839       H  0.59181357  0.32854038  0.53676086     0.28100
H1840       H  0.40487295  0.30683873  0.70524531     0.32300
H1841       H  0.36239586  0.32838822  0.62715792     0.35200
H1842       H  0.53422598  0.42844607  0.62039411     0.27800
H1843       H  0.58949101  0.29338723  0.53268148     0.40700
H1844       H  0.54298917  0.21230764  0.61927144     0.30700
H1845       H  0.57974875  0.25126920  0.65695461     0.38300
H1846       H  0.39529135  0.36990194  0.54528055     0.30200
H1847       H  0.40768747  0.22490355  0.59427553     0.30200
H1848       H  0.38154138  0.29962046  0.67742463     0.30500
C1849       C  0.42358022  0.17837471  0.72968937     0.02600
C1850       C  0.39923063  0.15721902  0.71623525    -0.13500
C1851       C  0.38722003  0.16206704  0.68796211     0.00100
C1852       C  0.39920172  0.18860945  0.67374547    -0.12100
C1853       C  0.42343545  0.20983544  0.68685953     0.02600
C1854       C  0.43542098  0.20476998  0.71495735    -0.11500
H1855       H  0.39092205  0.13657656  0.72738643     0.08200
H1856       H  0.39121768  0.19220150  0.65167001     0.05700
H1857       H  0.45487007  0.22076152  0.72501960     0.05600
C1858       C  0.55330855  0.17900436  0.98262809     0.02600
C1859       C  0.57595018  0.15737759  0.99707096    -0.13500
C1860       C  0.58454303  0.16158949  0.52634305     0.00100
C1861       C  0.57041787  0.18770376  0.54040284    -0.12100
C1862       C  0.54788980  0.20929280  0.52610382     0.02600
C1863       C  0.53969754  0.20491951  0.99707003    -0.11500
H1864       H  0.58566693  0.13710572  0.98593768     0.08200
H1865       H  0.57581472  0.19089471  0.56296886     0.05700
H1866       H  0.52143262  0.22113523  0.98613617     0.05600
Zr1867     Zr  0.46077310  0.16966842  0.90908804     2.17500
O1868       O  0.40285278  0.17110095  0.93792957    -0.51800
O1869       O  0.50465003  0.17324125  0.94893195    -0.75000
O1870       O  0.44435847  0.12011619  0.92949661    -0.81800
O1871       O  0.44967352  0.25405049  0.89478975    -0.83600
O1872       O  0.46403933  0.08361654  0.89822748    -0.79200
O1873       O  0.44064770  0.21858778  0.92951693    -0.90800
O1874       O  0.56617294  0.17347679  0.93342480    -0.76800
O1875       O  0.51524848  0.13980119  0.89666996    -0.86300
O1876       O  0.50877682  0.20483178  0.89474332    -0.86000
O1877       O  0.43998363  0.13707709  0.87063669    -0.72700
O1878       O  0.43323343  0.19663366  0.86943370    -0.84900
Zr1879     Zr  0.51730334  0.17010154  0.80320258     2.26400
Zr1880     Zr  0.49528117  0.10805576  0.85781770     2.06300
Zr1881     Zr  0.48234881  0.23115182  0.85501687     2.10000
Zr1882     Zr  0.56279326  0.17519711  0.88173036     1.78800
O1883       O  0.43347380  0.26342070  0.83366847    -0.93700
O1884       O  0.60816718  0.13409557  0.89064650    -0.41500
O1885       O  0.53753377  0.20250014  0.84176010    -0.78100
O1886       O  0.54414751  0.14277112  0.84301765    -0.96800
O1887       O  0.46964267  0.13432272  0.81739703    -0.90100
O1888       O  0.46291393  0.19966206  0.81631638    -0.92900
C1889       C  0.54080810  0.17429823  0.95310470     1.00800
C1890       C  0.43836240  0.24591714  0.91959596     1.13700
C1891       C  0.44696006  0.09220096  0.92116369     1.04500
O1892       O  0.54444428  0.07480218  0.87741235    -0.95100
O1893       O  0.52789039  0.08561782  0.81706794    -0.90800
O1894       O  0.53692698  0.12119895  0.78240671    -0.84000
C1895       C  0.54010814  0.09391375  0.79237758     1.11200
O1896       O  0.35583121  0.15084238  0.85377598    -0.97100
Zr1897     Zr  0.41549693  0.16393375  0.83027349     1.88900
O1898       O  0.47416443  0.17319386  0.76254797    -0.73700
O1899       O  0.45683802  0.06562842  0.84017281    -0.53000
O1900       O  0.38625653  0.11693385  0.81293800    -0.97700
O1901       O  0.36777334  0.20356699  0.82257770    -0.54900
O1902       O  0.41308827  0.16892837  0.77861052    -0.74200
C1903       C  0.43783570  0.17273403  0.75875102     0.98100
O1904       O  0.57815982  0.17055984  0.77758846    -0.63100
O1905       O  0.51962345  0.27529683  0.87047498    -0.57900
O1906       O  0.53218294  0.22023275  0.78342224    -0.94500
O1907       O  0.51534305  0.25579776  0.81658257    -0.93000
O1908       O  0.59441866  0.22216413  0.89681328    -0.93300
O1909       O  0.62156403  0.18538305  0.85586136    -0.92100
C1910       C  0.53034560  0.24776458  0.79286853     1.16900
H1911       H  0.51509350  0.21892788  0.90989817     0.32900
H1912       H  0.56648076  0.13160198  0.83689650     0.43700
H1913       H  0.45425692  0.21264725  0.80099833     0.37300
H1914       H  0.41979139  0.12371859  0.87701667     0.33700
H1915       H  0.62865229  0.14369005  0.90212546     0.25500
H1916       H  0.46503664  0.04769890  0.85149204     0.31500
H1917       H  0.36548818  0.12376047  0.80011931     0.37400
H1918       H  0.61578088  0.21537111  0.90908607     0.31800
H1919       H  0.50144422  0.29262655  0.87059106     0.30700
H1920       H  0.43921745  0.28429714  0.84064041     0.32400
H1921       H  0.34972818  0.19454410  0.80866304     0.31400
H1922       H  0.61440139  0.18374551  0.83550609     0.35400
H1923       H  0.59083232  0.19008017  0.78255892     0.28100
H1924       H  0.41002874  0.16268415  0.95677401     0.32300
H1925       H  0.35866329  0.15898359  0.87336621     0.35200
H1926       H  0.52544323  0.27159405  0.89082584     0.27800
H1927       H  0.59419909  0.15504058  0.78719583     0.40700
H1928       H  0.54267841  0.07756090  0.89832251     0.30700
H1929       H  0.59493673  0.12033060  0.90415614     0.38300
H1930       H  0.38126061  0.21967746  0.81172532     0.30200
H1931       H  0.43059957  0.07004958  0.84683990     0.30200
H1932       H  0.38548309  0.15572881  0.92942700     0.30500
C1933       C  0.38846245  0.05288333  0.97889866     0.02600
C1934       C  0.37632946  0.02661386  0.96417453    -0.13500
C1935       C  0.38864033  0.02125088  0.93623584     0.00100
C1936       C  0.41344381  0.04214085  0.92318949    -0.12100
C1937       C  0.42588345  0.06855021  0.93748917     0.02600
C1938       C  0.41356662  0.07361571  0.96567254    -0.11500
H1939       H  0.35647383  0.01089814  0.97414753     0.08200
H1940       H  0.42156043  0.03842596  0.90115327     0.05700
H1941       H  0.42230566  0.09409846  0.97694661     0.05600
C1942       C  0.59550116  0.05389249  0.73270984     0.02600
C1943       C  0.57175761  0.07520420  0.74670742    -0.13500
C1944       C  0.56121429  0.07053173  0.77542776     0.00100
C1945       C  0.57419206  0.04401492  0.78932384    -0.12100
C1946       C  0.59763645  0.02279259  0.77546577     0.02600
C1947       C  0.60814571  0.02771201  0.74717811    -0.11500
H1948       H  0.56265230  0.09562947  0.73558372     0.08200
H1949       H  0.56732332  0.04020953  0.81157100     0.05700
H1950       H  0.62703309  0.01161765  0.73664882     0.05600
Zr1951     Zr  0.62844976  0.06131705  0.55292529     2.17500
O1952       O  0.56997111  0.05733693  0.52489821    -0.51800
O1953       O  0.67147744  0.05800047  0.51211978    -0.75000
O1954       O  0.60748894  0.11060283  0.53350103    -0.81800
O1955       O  0.62903001  0.47560524  0.56646768    -0.83600
O1956       O  0.61893863  0.14660437  0.56742433    -0.79200
O1957       O  0.60964421  0.01163264  0.53415288    -0.90800
O1958       O  0.39954970  0.06153174  0.52767824    -0.76800
O1959       O  0.34367264  0.09654995  0.56655278    -0.86300
O1960       O  0.34927665  0.03118506  0.56548128    -0.86000
O1961       O  0.60237590  0.08926734  0.59281064    -0.72700
O1962       O  0.60842250  0.02942860  0.59184419    -0.84900
Zr1963     Zr  0.35381820  0.06160936  0.65813516     2.26400
Zr1964     Zr  0.65245470  0.12330418  0.60713030     2.06300
Zr1965     Zr  0.66315667  0.00008803  0.60440280     2.10000
Zr1966     Zr  0.39754296  0.06641762  0.57912438     1.78800
O1967       O  0.62528766  0.45745756  0.62198440    -0.93700
O1968       O  0.42719671  0.11333676  0.56189098    -0.41500
O1969       O  0.37993226  0.03393261  0.61833636    -0.78100
O1970       O  0.37411993  0.09388547  0.61949341    -0.96800
O1971       O  0.63297128  0.09208649  0.64622284    -0.90100
O1972       O  0.63824667  0.02710655  0.64419178    -0.92900
C1973       C  0.37446978  0.05820696  0.50804930     1.00800
C1974       C  0.61260492  0.48379101  0.54335054     1.13700
C1975       C  0.60545039  0.13810914  0.54319575     1.04500
O1976       O  0.35937706  0.16451269  0.58940154    -0.95100
O1977       O  0.35078434  0.14659044  0.64802926    -0.90800
O1978       O  0.36880632  0.11043723  0.68015608    -0.84000
C1979       C  0.36683340  0.13821214  0.67143859     1.11200
O1980       O  0.52573580  0.04507357  0.60684665    -0.97100
Zr1981     Zr  0.58447585  0.05729706  0.63197511     1.88900
O1982       O  0.64466995  0.05809466  0.69890305    -0.73700
O1983       O  0.60636167  0.15861696  0.62777403    -0.53000
O1984       O  0.54056149  0.09955827  0.64006646    -0.97700
O1985       O  0.54951443  0.01278811  0.64935854    -0.54900
O1986       O  0.58304909  0.06050304  0.68368733    -0.74200
C1987       C  0.60848108  0.05846243  0.70324409     0.98100
O1988       O  0.41635666  0.06212366  0.68117625    -0.63100
O1989       O  0.37738349  0.46641084  0.58298862    -0.57900
O1990       O  0.37065281  0.01270197  0.67961829    -0.94500
O1991       O  0.36151454  0.47739413  0.64470100    -0.93000
O1992       O  0.44351276  0.02556234  0.57089551    -0.93300
O1993       O  0.45831101  0.07812883  0.60165668    -0.92100
C1994       C  0.37237073  0.48538618  0.66969602     1.16900
H1995       H  0.35748235  0.01804915  0.55009625     0.32900
H1996       H  0.39452363  0.10711679  0.62577076     0.43700
H1997       H  0.63206888  0.01313226  0.65942359     0.37300
H1998       H  0.58004726  0.10056292  0.58692291     0.33700
H1999       H  0.44579132  0.10658581  0.54728616     0.25500
H2000       H  0.61334034  0.17883223  0.61983722     0.31500
H2001       H  0.52124556  0.09127762  0.65339433     0.37400
H2002       H  0.46127519  0.03382915  0.55640378     0.31800
H2003       H  0.40197815  0.47309834  0.59130335     0.30700
H2004       H  0.63662120  0.43904076  0.61307007     0.32400
H2005       H  0.52783709  0.02134120  0.66032612     0.31400
H2006       H  0.45450634  0.07299021  0.62200273     0.35400
H2007       H  0.43051583  0.04484612  0.67253598     0.28100
H2008       H  0.57588138  0.06653573  0.50612948     0.32300
H2009       H  0.53231434  0.04683737  0.58638916     0.35200
H2010       H  0.37256334  0.44614328  0.59165698     0.27800
H2011       H  0.42957368  0.08040120  0.67359462     0.40700
H2012       H  0.38545199  0.15906608  0.59573520     0.30700
H2013       H  0.40706405  0.12397117  0.55091589     0.38300
H2014       H  0.56604557  0.00328857  0.66397420     0.30200
H2015       H  0.58180080  0.15346280  0.61850917     0.30200
H2016       H  0.55159899  0.07153722  0.53396803     0.30500
C2017       C  0.38747068  0.92923246  0.22988409     0.02600
C2018       C  0.41138724  0.90784471  0.21625378    -0.13500
C2019       C  0.42339437  0.91273185  0.18796082     0.00100
C2020       C  0.41232301  0.93963088  0.17410873    -0.12100
C2021       C  0.38825871  0.96083412  0.18728676     0.02600
C2022       C  0.37585261  0.95568658  0.21524829    -0.11500
H2023       H  0.41940669  0.88706584  0.22728930     0.08200
H2024       H  0.42063075  0.94344340  0.15212829     0.05700
H2025       H  0.35640903  0.97169544  0.22528854     0.05600
C2026       C  0.59262838  0.92901323  0.48315925     0.02600
C2027       C  0.60540081  0.95493949  0.49794304    -0.13500
C2028       C  0.59513630  0.95920756  0.02649905     0.00100
C2029       C  0.57177010  0.93782736  0.04007715    -0.12100
C2030       C  0.55863506  0.91161950  0.02572081     0.02600
C2031       C  0.56884988  0.90758617  0.49692909    -0.11500
H2032       H  0.62430822  0.97113516  0.48759214     0.08200
H2033       H  0.56510169  0.94125634  0.06242376     0.05700
H2034       H  0.55955117  0.88734714  0.48554758     0.05600
Zr2035     Zr  0.62708055  0.91982667  0.30330348     2.17500
O2036       O  0.56849699  0.91818781  0.27526461    -0.51800
O2037       O  0.67058562  0.92338757  0.26292047    -0.75000
O2038       O  0.61072680  0.97009040  0.28363198    -0.81800
O2039       O  0.61656590  0.83566702  0.31722155    -0.83600
O2040       O  0.63086954  0.50600790  0.31539349    -0.79200
O2041       O  0.60594465  0.87130597  0.28288763    -0.90800
O2042       O  0.39851305  0.92069386  0.27877545    -0.76800
O2043       O  0.34848411  0.94905368  0.31584738    -0.86300
O2044       O  0.34178825  0.88415035  0.31708830    -0.86000
O2045       O  0.60613545  0.95169232  0.34213326    -0.72700
O2046       O  0.60124448  0.89189636  0.34322971    -0.84900
Zr2047     Zr  0.35168183  0.91960345  0.40898581     2.26400
Zr2048     Zr  0.66179987  0.98046043  0.35461178     2.06300
Zr2049     Zr  0.65051008  0.85745750  0.35758986     2.10000
Zr2050     Zr  0.39607675  0.91339815  0.32999587     1.78800
O2051       O  0.60327455  0.82323954  0.37833985    -0.93700
O2052       O  0.44520627  0.95212028  0.32319101    -0.41500
O2053       O  0.37186635  0.88679699  0.37061319    -0.78100
O2054       O  0.37818946  0.94635149  0.36879307    -0.96800
O2055       O  0.63644519  0.95409906  0.39474484    -0.90100
O2056       O  0.63100905  0.88894437  0.39660837    -0.92900
C2057       C  0.37353040  0.92376643  0.25902727     1.00800
C2058       C  0.60362644  0.84394963  0.29274769     1.13700
C2059       C  0.61444965  0.99786735  0.29227260     1.04500
O2060       O  0.37527981  0.51513645  0.33393777    -0.95100
O2061       O  0.36123035  0.50442653  0.39366151    -0.90800
O2062       O  0.36965709  0.96935123  0.42904449    -0.84000
C2063       C  0.37213179  0.99655439  0.41878029     1.11200
O2064       O  0.52271857  0.93308495  0.35784538    -0.97100
Zr2065     Zr  0.58265542  0.92381504  0.38241427     1.88900
O2066       O  0.64202778  0.92459970  0.44946444    -0.73700
O2067       O  0.62255775  0.52113623  0.37485608    -0.53000
O2068       O  0.55158179  0.97043771  0.39891689    -0.97700
O2069       O  0.53685447  0.88313052  0.39196078    -0.54900
O2070       O  0.58046761  0.92230405  0.43412229    -0.74200
C2071       C  0.60579424  0.92452211  0.45372117     0.98100
O2072       O  0.41316048  0.91954919  0.43361106    -0.63100
O2073       O  0.35584446  0.81465750  0.34101547    -0.57900
O2074       O  0.36618369  0.87027478  0.43059455    -0.94500
O2075       O  0.35156935  0.83451080  0.39709034    -0.93000
O2076       O  0.42293036  0.86611217  0.31109658    -0.93300
O2077       O  0.45523933  0.89856634  0.35328760    -0.92100
C2078       C  0.36604204  0.84267506  0.42113437     1.16900
H2079       H  0.34766981  0.87030734  0.30164225     0.32900
H2080       H  0.40050914  0.95771276  0.37466351     0.43700
H2081       H  0.62279741  0.87646681  0.41245042     0.37300
H2082       H  0.58585923  0.96509376  0.33601636     0.33700
H2083       H  0.46349600  0.94273825  0.30967212     0.25500
H2084       H  0.63087592  0.53999349  0.36498228     0.31500
H2085       H  0.52894225  0.96336398  0.40969998     0.38200
H2086       H  0.44617480  0.87247623  0.30065820     0.31800
H2087       H  0.34007793  0.79628428  0.34466071     0.30700
H2088       H  0.61246078  0.80242538  0.37366063     0.32400
H2089       H  0.51879402  0.89205875  0.40591489     0.31400
H2090       H  0.45180897  0.90481867  0.37341474     0.35400
H2091       H  0.42602166  0.90035229  0.42787843     0.28100
H2092       H  0.57533847  0.92661732  0.25635845     0.32300
H2093       H  0.52750698  0.92634131  0.33801022     0.35200
H2094       H  0.35649495  0.81649865  0.31999254     0.27800
H2095       H  0.42842419  0.93559986  0.42404378     0.40700
H2096       H  0.39970909  0.50965636  0.34322236     0.30700
H2097       H  0.43251961  0.96837965  0.31200393     0.38300
H2098       H  0.55127813  0.86769332  0.40298133     0.30200
H2099       H  0.59648740  0.51721195  0.36758467     0.30200
H2100       H  0.55142981  0.93365040  0.28395336     0.30500
C2101       C  0.42112410  0.80192665  0.48007257     0.02600
C2102       C  0.39741955  0.82336826  0.46636668    -0.13500
C2103       C  0.38596258  0.81868584  0.43790289     0.00100
C2104       C  0.39747917  0.79183673  0.42391592    -0.12100
C2105       C  0.42135396  0.77049633  0.43717629     0.02600
C2106       C  0.43306604  0.77554420  0.46535228    -0.11500
H2107       H  0.38925165  0.84409565  0.47747751     0.08200
H2108       H  0.38960846  0.78814047  0.40182899     0.05700
H2109       H  0.45245598  0.75958403  0.47547628     0.05600
C2110       C  0.55081495  0.80207670  0.23278681     0.02600
C2111       C  0.57354896  0.82410101  0.24682740    -0.13500
C2112       C  0.58314248  0.82024867  0.27584759     0.00100
C2113       C  0.57020455  0.79398057  0.29004158    -0.12100
C2114       C  0.54757103  0.77224455  0.27622062     0.02600
C2115       C  0.53816699  0.77614804  0.24757906    -0.11500
H2116       H  0.58255754  0.84442732  0.23549937     0.08200
H2117       H  0.57645221  0.79077808  0.31247777     0.05700
H2118       H  0.51984166  0.75961308  0.23707756     0.05600
Zr2119     Zr  0.45820705  0.81197704  0.15894208     2.17500
O2120       O  0.39941323  0.81544206  0.18661656    -0.51800
O2121       O  0.50151894  0.80768363  0.19924467    -0.75000
O2122       O  0.43981533  0.76220079  0.17875654    -0.81800
O2123       O  0.45954855  0.89741684  0.14781941    -0.83600
O2124       O  0.45115626  0.72663092  0.14439373    -0.79200
O2125       O  0.44091658  0.86102714  0.17957194    -0.90800
O2126       O  0.56292878  0.80717942  0.18352403    -0.76800
O2127       O  0.50689668  0.77762381  0.14443858    -0.86300
O2128       O  0.51181272  0.84285615  0.14643099    -0.86000
O2129       O  0.43110937  0.78479137  0.11918620    -0.72700
O2130       O  0.43781483  0.84475605  0.12064283    -0.84900
Zr2131     Zr  0.51544947  0.81187208  0.05293801     2.26400
Zr2132     Zr  0.48112321  0.75115809  0.10432667     2.06300
Zr2133     Zr  0.49215193  0.87422578  0.10745788     2.10000
Zr2134     Zr  0.56019938  0.80833994  0.13182501     1.78800
O2135       O  0.45350347  0.91606761  0.08899305    -0.93700
O2136       O  0.59559790  0.76230526  0.14416753    -0.41500
O2137       O  0.54137972  0.84003279  0.09266498    -0.78100
O2138       O  0.53640527  0.78030823  0.09182961    -0.96800
O2139       O  0.46093801  0.78252140  0.06575864    -0.90100
O2140       O  0.46711159  0.84719013  0.06733503    -0.92900
C2141       C  0.53772904  0.80636383  0.20330129     1.00800
C2142       C  0.44321533  0.88887010  0.17107885     1.13700
C2143       C  0.43919314  0.73466929  0.16908454     1.04500
O2144       O  0.51686853  0.70651886  0.12006343    -0.95100
O2145       O  0.51378274  0.72580440  0.06582809    -0.90800
O2146       O  0.53157591  0.76148391  0.03314045    -0.84000
C2147       C  0.52958933  0.73381734  0.04239716     1.11200
O2148       O  0.35611824  0.83208153  0.10699934    -0.97100
Zr2149     Zr  0.41300447  0.81767710  0.08045362     1.88900
O2150       O  0.47161989  0.80802524  0.01275581    -0.73700
O2151       O  0.43086226  0.72096380  0.08214975    -0.53000
O2152       O  0.36590811  0.77729733  0.07411908    -0.97700
O2153       O  0.37946568  0.86245434  0.06205774    -0.54900
O2154       O  0.41046006  0.81067050  0.02904145    -0.74200
C2155       C  0.43525324  0.80750018  0.00911468     0.98100
O2156       O  0.57636092  0.81155710  0.02735915    -0.63100
O2157       O  0.54042785  0.90787994  0.12786718    -0.57900
O2158       O  0.53453722  0.86083732  0.03214068    -0.94500
O2159       O  0.52541331  0.89619754  0.06704765    -0.93000
O2160       O  0.60186119  0.85103956  0.14372508    -0.93300
O2161       O  0.62061929  0.80277285  0.10703922    -0.92100
C2162       C  0.53767328  0.88804254  0.04235256     1.16900
H2163       H  0.52016271  0.85530865  0.16228263     0.32900
H2164       H  0.55690043  0.76709496  0.08572637     0.43700
H2165       H  0.46093819  0.86106140  0.05201770     0.37300
H2166       H  0.40900687  0.77330858  0.12528152     0.33700
H2167       H  0.61541340  0.76924744  0.15776844     0.25500
H2168       H  0.43919102  0.69950960  0.08467996     0.31500
H2169       H  0.34863424  0.78502186  0.05905693     0.37400
H2170       H  0.62020438  0.84257374  0.15769545     0.31800
H2171       H  0.56357839  0.90440015  0.11619694     0.30700
H2172       H  0.46500536  0.93478999  0.09719942     0.32400
H2173       H  0.35522689  0.85436712  0.05421404     0.31400
H2174       H  0.61478779  0.80789120  0.08695929     0.35400
H2175       H  0.59181888  0.82802492  0.03613984     0.28100
H2176       H  0.40555591  0.80667720  0.20552210     0.32300
H2177       H  0.36249008  0.82802882  0.12720581     0.35200
H2178       H  0.53202322  0.92878075  0.12277826     0.27800
H2179       H  0.58973425  0.79271254  0.03339713     0.40700
H2180       H  0.54400321  0.71264272  0.11855137     0.30700
H2181       H  0.57771965  0.75009153  0.15587883     0.38300
H2182       H  0.39400552  0.86903711  0.04505273     0.30200
H2183       H  0.40859973  0.72316517  0.09498209     0.30200
H2184       H  0.38167559  0.80060340  0.17772419     0.30500
C2185       C  0.42342247  0.67865377  0.22966688     0.02600
C2186       C  0.39904099  0.65744815  0.21626567    -0.13500
C2187       C  0.38699828  0.66218717  0.18796235     0.00100
C2188       C  0.39881979  0.68873997  0.17371055    -0.12100
C2189       C  0.42308230  0.70997846  0.18673985     0.02600
C2190       C  0.43521648  0.70498737  0.21482000    -0.11500
H2191       H  0.39078464  0.63682687  0.22746788     0.08200
H2192       H  0.39076207  0.69231220  0.15164570     0.05700
H2193       H  0.45473412  0.72099916  0.22477761     0.05600
C2194       C  0.55333743  0.67905267  0.48276277     0.02600
C2195       C  0.57582647  0.65732966  0.49720092    -0.13500
C2196       C  0.58459984  0.66149020  0.02615838     0.00100
C2197       C  0.57025598  0.68750133  0.04026656    -0.12100
C2198       C  0.54770483  0.70908135  0.02597762     0.02600
C2199       C  0.54007232  0.70512497  0.49716983    -0.11500
H2200       H  0.58533254  0.63698254  0.48608295     0.08200
H2201       H  0.57552528  0.69062734  0.06285652     0.05700
H2202       H  0.52195346  0.72143187  0.48622193     0.05600
Zr2203     Zr  0.46072299  0.66968042  0.40923114     2.17500
O2204       O  0.40286339  0.67165050  0.43810083    -0.51800
O2205       O  0.50453326  0.67326648  0.44913897    -0.75000
O2206       O  0.44407950  0.62015467  0.42955600    -0.81800
O2207       O  0.44890030  0.75394551  0.39459605    -0.83600
O2208       O  0.46392103  0.58366473  0.39832831    -0.79200
O2209       O  0.44078267  0.71870666  0.42962822    -0.90800
O2210       O  0.56603367  0.67331926  0.43356509    -0.76800
O2211       O  0.51520824  0.63974813  0.39685360    -0.86300
O2212       O  0.50880972  0.70475558  0.39490572    -0.86000
O2213       O  0.43997005  0.63708424  0.37072657    -0.72700
O2214       O  0.43317637  0.69656554  0.36954916    -0.84900
Zr2215     Zr  0.51724681  0.66994957  0.30330625     2.26400
Zr2216     Zr  0.49528825  0.60799961  0.35798669     2.06300
Zr2217     Zr  0.48233971  0.73101802  0.35517005     2.10000
Zr2218     Zr  0.56278674  0.67508035  0.38185708     1.78800
O2219       O  0.43353521  0.76304343  0.33349197    -0.93700
O2220       O  0.60874699  0.63437012  0.39069987    -0.41500
O2221       O  0.53746108  0.70231492  0.34188658    -0.78100
O2222       O  0.54416846  0.64263231  0.34312406    -0.96800
O2223       O  0.46956367  0.63423017  0.31756778    -0.90100
O2224       O  0.46294946  0.69957043  0.31645683    -0.92900
C2225       C  0.54070653  0.67427911  0.45327041     1.00800
C2226       C  0.43805376  0.74595312  0.41956200     1.13700
C2227       C  0.44677303  0.59224337  0.42122400     1.04500
O2228       O  0.54473048  0.57532146  0.37806031    -0.95100
O2229       O  0.52750720  0.58545024  0.31709853    -0.90800
O2230       O  0.53627844  0.62097329  0.28234703    -0.84000
C2231       C  0.53952399  0.59369866  0.29233524     1.11200
O2232       O  0.35592104  0.65072044  0.35400495    -0.97100
Zr2233     Zr  0.41544066  0.66391800  0.33033896     1.88900
O2234       O  0.47411947  0.67355993  0.26257883    -0.73700
O2235       O  0.45781964  0.56488742  0.34060516    -0.53000
O2236       O  0.38627899  0.61691016  0.31294767    -0.97700
O2237       O  0.36778734  0.70361263  0.32255294    -0.54900
O2238       O  0.41305021  0.66914701  0.27864036    -0.74200
C2239       C  0.43776966  0.67307147  0.25876657     0.98100
O2240       O  0.57849810  0.67016219  0.27825543    -0.63100
O2241       O  0.51904306  0.77525726  0.37109914    -0.57900
O2242       O  0.53251971  0.72005453  0.28364641    -0.94500
O2243       O  0.51568695  0.75561298  0.31683233    -0.93000
O2244       O  0.59391916  0.72235384  0.39663794    -0.93300
O2245       O  0.62179995  0.68528073  0.35629449    -0.92100
C2246       C  0.53068127  0.74758897  0.29309891     1.16900
H2247       H  0.51512943  0.71886701  0.41004809     0.32900
H2248       H  0.56647270  0.63142943  0.33699223     0.43700
H2249       H  0.45434004  0.71260352  0.30116132     0.37300
H2250       H  0.41976426  0.62373029  0.37708838     0.33700
H2251       H  0.62921938  0.64417338  0.40203925     0.25500
H2252       H  0.46560034  0.54732183  0.35256727     0.31500
H2253       H  0.36545215  0.62373405  0.30018160     0.37400
H2254       H  0.61525414  0.71578833  0.40904347     0.31800
H2255       H  0.50122412  0.79276192  0.36972336     0.30700
H2256       H  0.44166412  0.78425756  0.33768901     0.32400
H2257       H  0.34853542  0.69396207  0.30997024     0.31400
H2258       H  0.61393441  0.68797062  0.33619060     0.35400
H2259       H  0.59140323  0.68940515  0.28380448     0.28100
H2260       H  0.41009195  0.66344075  0.45701247     0.32300
H2261       H  0.35862521  0.65927710  0.37345159     0.35200
H2262       H  0.52290299  0.77227639  0.39181191     0.27800
H2263       H  0.59406438  0.65420989  0.28768141     0.40700
H2264       H  0.54193168  0.57742515  0.39897456     0.30700
H2265       H  0.59581259  0.62055884  0.40432703     0.38300
H2266       H  0.38062339  0.71884212  0.31024810     0.30200
H2267       H  0.43129123  0.56942341  0.34651967     0.30200
H2268       H  0.38542685  0.65620504  0.42979693     0.30500
C2269       C  0.38850213  0.55273246  0.47889259     0.02600
C2270       C  0.37642115  0.52647157  0.46412643    -0.13500
C2271       C  0.38866975  0.52121837  0.43615223     0.00100
C2272       C  0.41346165  0.54213393  0.42315736    -0.12100
C2273       C  0.42576182  0.56855814  0.43749148     0.02600
C2274       C  0.41342382  0.57357739  0.46566138    -0.11500
H2275       H  0.35662663  0.51069630  0.47408392     0.08200
H2276       H  0.42162359  0.53845036  0.40112537     0.05700
H2277       H  0.42203864  0.59409371  0.47693572     0.05600
C2278       C  0.59558345  0.55405090  0.23278083     0.02600
C2279       C  0.57140939  0.57513549  0.24668618    -0.13500
C2280       C  0.56063451  0.57032847  0.27535057     0.00100
C2281       C  0.57365527  0.54381207  0.28923078    -0.12100
C2282       C  0.59751591  0.52281416  0.27546968     0.02600
C2283       C  0.60838980  0.52794446  0.24728889    -0.11500
H2284       H  0.56220039  0.59552738  0.23555792     0.08200
H2285       H  0.56656920  0.53987419  0.31141998     0.05700
H2286       H  0.62759682  0.51202429  0.23685400     0.05600
Zr2287     Zr  0.62862831  0.56129431  0.05284469     2.17500
O2288       O  0.56996516  0.55715823  0.02506012    -0.51800
O2289       O  0.67179482  0.55810909  0.01210736    -0.75000
O2290       O  0.60772072  0.61052650  0.03325857    -0.81800
O2291       O  0.62803348  0.97573799  0.06677427    -0.83600
O2292       O  0.61877204  0.64646874  0.06731931    -0.79200
O2293       O  0.61027709  0.51143359  0.03405052    -0.90800
O2294       O  0.39973910  0.56172224  0.02770960    -0.76800
O2295       O  0.34372896  0.59654575  0.06651962    -0.86300
O2296       O  0.34942516  0.53113576  0.06543704    -0.86000
O2297       O  0.60239523  0.58922074  0.09270434    -0.72700
O2298       O  0.60855470  0.52956192  0.09184942    -0.84900
Zr2299     Zr  0.35396867  0.56169814  0.15816656     2.26400
Zr2300     Zr  0.65230156  0.62334427  0.10712345     2.06300
Zr2301     Zr  0.66322277  0.50016551  0.10441735     2.10000
Zr2302     Zr  0.39760710  0.56644250  0.07914696     1.78800
O2303       O  0.62582205  0.95707875  0.12177213    -0.93700
O2304       O  0.42812321  0.61284274  0.06149306    -0.41500
O2305       O  0.37994740  0.53400325  0.11835301    -0.78100
O2306       O  0.37415123  0.59400985  0.11944226    -0.96800
O2307       O  0.63309627  0.59213312  0.14624372    -0.90100
O2308       O  0.63838006  0.52721565  0.14422539    -0.92900
C2309       C  0.37471912  0.55824505  0.00806294     1.00800
C2310       C  0.61221447  0.98385066  0.04338954     1.13700
C2311       C  0.60549225  0.63800194  0.04301451     1.04500
O2312       O  0.35677614  0.66616363  0.08992902    -0.95100
O2313       O  0.35123434  0.64646768  0.14775750    -0.90800
O2314       O  0.36835800  0.61054224  0.18037440    -0.84000
C2315       C  0.36677196  0.63824301  0.17141560     1.11200
O2316       O  0.52544570  0.54580314  0.10721708    -0.97100
Zr2317     Zr  0.58461278  0.55740647  0.13201212     1.88900
O2318       O  0.64484165  0.55827076  0.19897790    -0.73700
O2319       O  0.60554768  0.65755395  0.12853939    -0.53000
O2320       O  0.54128756  0.59992664  0.14074029    -0.97700
O2321       O  0.55006800  0.51251022  0.14894385    -0.54900
O2322       O  0.58322574  0.56068028  0.18373550    -0.74200
C2323       C  0.60863967  0.55866308  0.20331378     0.98100
O2324       O  0.41669709  0.56214688  0.18089339    -0.63100
O2325       O  0.37784155  0.96736001  0.08248767    -0.57900
O2326       O  0.37098262  0.51274618  0.17960900    -0.94500
O2327       O  0.36146050  0.97747209  0.14469104    -0.93000
O2328       O  0.44284692  0.52487281  0.07196640    -0.93300
O2329       O  0.45853232  0.57824048  0.10139769    -0.92100
C2330       C  0.37240751  0.98546460  0.16966433     1.16900
H2331       H  0.35768350  0.51799345  0.05007179     0.32900
H2332       H  0.39452650  0.60729971  0.12566240     0.43700
H2333       H  0.63223088  0.51325876  0.15947507     0.37300
H2334       H  0.58003354  0.60045780  0.08678780     0.33700
H2335       H  0.45053830  0.60564529  0.05051123     0.25500
H2336       H  0.61334435  0.67822811  0.12221570     0.31500
H2337       H  0.52033700  0.59102606  0.15221505     0.37400
H2338       H  0.46012673  0.53219575  0.05673118     0.31800
H2339       H  0.40208301  0.97310980  0.09191735     0.30700
H2340       H  0.63870494  0.93871235  0.11402446     0.32400
H2341       H  0.52831501  0.52082180  0.15998530     0.31400
H2342       H  0.45422036  0.57504225  0.12202888     0.35400
H2343       H  0.43104870  0.54537602  0.17158362     0.28100
H2344       H  0.57568864  0.56638809  0.00627321     0.32300
H2345       H  0.53229058  0.54595966  0.08674094     0.35200
H2346       H  0.37213169  0.94662882  0.08979336     0.27800
H2347       H  0.42949165  0.58086773  0.17386971     0.40700
H2348       H  0.38331389  0.65842165  0.08969576     0.30700
H2349       H  0.41049620  0.62097009  0.04685331     0.38300
H2350       H  0.56667164  0.50296194  0.16348347     0.30200
H2351       H  0.58149568  0.65345467  0.11814512     0.30200
H2352       H  0.55162907  0.57131776  0.03422611     0.30500
C2353       C  0.38750178  0.92931496  0.72990738     0.02600
C2354       C  0.41131604  0.90786477  0.71629945    -0.13500
C2355       C  0.42326945  0.91267314  0.68800274     0.00100
C2356       C  0.41230421  0.93958262  0.67412228    -0.12100
C2357       C  0.38827393  0.96081737  0.68726853     0.02600
C2358       C  0.37589468  0.95574972  0.71524313    -0.11500
H2359       H  0.41927530  0.88708551  0.72735733     0.08200
H2360       H  0.42063552  0.94337434  0.65214417     0.05700
H2361       H  0.35647345  0.97179097  0.72526361     0.05600
C2362       C  0.59273693  0.92889430  0.98320684     0.02600
C2363       C  0.60554357  0.95475375  0.99810621    -0.13500
C2364       C  0.59515734  0.95940043  0.52635091     0.00100
C2365       C  0.57192105  0.93802941  0.54005756    -0.12100
C2366       C  0.55868039  0.91181760  0.52578420     0.02600
C2367       C  0.56890306  0.90744805  0.99688626    -0.11500
H2368       H  0.62453862  0.97093973  0.98783631     0.08200
H2369       H  0.56542024  0.94148314  0.56242867     0.05700
H2370       H  0.55962323  0.88723885  0.98544871     0.05600
Zr2371     Zr  0.62705012  0.91987471  0.80320512     2.17500
O2372       O  0.56907922  0.91806093  0.77445038    -0.51800
O2373       O  0.67061223  0.92355444  0.76291947    -0.75000
O2374       O  0.61061261  0.97010604  0.78356288    -0.81800
O2375       O  0.61686601  0.83564558  0.81696691    -0.83600
O2376       O  0.63118218  0.50584032  0.81540529    -0.79200
O2377       O  0.60585179  0.87137438  0.78280104    -0.90800
O2378       O  0.39854312  0.92042162  0.77872931    -0.76800
O2379       O  0.34858863  0.94895839  0.81580252    -0.86300
O2380       O  0.34179777  0.88409195  0.81704244    -0.86000
O2381       O  0.60611278  0.95172408  0.84207829    -0.72700
O2382       O  0.60108574  0.89199384  0.84310703    -0.84900
Zr2383     Zr  0.35176619  0.91949955  0.90899494     2.26400
Zr2384     Zr  0.66185167  0.98044006  0.85454939     2.06300
Zr2385     Zr  0.65032634  0.85752483  0.85749764     2.10000
Zr2386     Zr  0.39612871  0.91330094  0.82998429     1.78800
O2387       O  0.60208454  0.82430907  0.87832736    -0.93700
O2388       O  0.44507693  0.95208159  0.82261146    -0.41500
O2389       O  0.37178606  0.88672480  0.87055209    -0.78100
O2390       O  0.37836214  0.94625365  0.86881781    -0.96800
O2391       O  0.63649445  0.95407079  0.89468050    -0.90100
O2392       O  0.63099121  0.88896824  0.89658265    -0.92900
C2393       C  0.37356702  0.92383735  0.75902498     1.00800
C2394       C  0.60378091  0.84396770  0.79256004     1.13700
C2395       C  0.61447028  0.99786568  0.79219480     1.04500
O2396       O  0.37544668  0.51495877  0.83373332    -0.95100
O2397       O  0.36130357  0.50433639  0.89385411    -0.90800
O2398       O  0.36969041  0.96932909  0.92906548    -0.84000
C2399       C  0.37205417  0.99655868  0.91881770     1.11200
O2400       O  0.52251556  0.93350136  0.85819936    -0.97100
Zr2401     Zr  0.58264955  0.92384458  0.88240036     1.88900
O2402       O  0.64210686  0.92471956  0.94944937    -0.73700
O2403       O  0.62323673  0.52156300  0.87451823    -0.53000
O2404       O  0.55168537  0.97038557  0.89923946    -0.97700
O2405       O  0.53740688  0.88270133  0.89171433    -0.54900
O2406       O  0.58055170  0.92209360  0.93414541    -0.74200
C2407       C  0.60588484  0.92447549  0.95373648     0.98100
O2408       O  0.41296613  0.91873801  0.93400778    -0.63100
O2409       O  0.35403072  0.81344932  0.84173640    -0.57900
O2410       O  0.36617963  0.86997826  0.93036015    -0.94500
O2411       O  0.35159805  0.83421391  0.89684318    -0.93000
O2412       O  0.42281182  0.86553341  0.81204196    -0.93300
O2413       O  0.45535655  0.89908965  0.85350029    -0.92100
C2414       C  0.36604512  0.84236886  0.92090549     1.16900
H2415       H  0.34768921  0.87022464  0.80161629     0.32900
H2416       H  0.40068665  0.95760723  0.87469483     0.43700
H2417       H  0.62280188  0.87647516  0.91241888     0.37300
H2418       H  0.58586554  0.96516200  0.83597763     0.33700
H2419       H  0.46289792  0.94287213  0.80864679     0.25500
H2420       H  0.63196771  0.54027249  0.86459684     0.31500
H2421       H  0.52900391  0.96327383  0.90995147     0.38200
H2422       H  0.44466722  0.87175706  0.79998782     0.31800
H2423       H  0.33672763  0.79572454  0.84406600     0.30700
H2424       H  0.61309730  0.80350654  0.87709156     0.32400
H2425       H  0.51862594  0.89165612  0.90510898     0.31400
H2426       H  0.45117159  0.90429343  0.87380642     0.35400
H2427       H  0.42622767  0.90006591  0.92734123     0.28100
H2428       H  0.57624863  0.92661708  0.75565978     0.32300
H2429       H  0.52761886  0.92839072  0.83798881     0.35200
H2430       H  0.35668891  0.81589548  0.82085634     0.27800
H2431       H  0.42806872  0.93551717  0.92544073     0.40700
H2432       H  0.39964404  0.51025088  0.84369820     0.30700
H2433       H  0.43202977  0.96850585  0.81186874     0.38300
H2434       H  0.55172744  0.86772254  0.90334250     0.30200
H2435       H  0.59718376  0.51786275  0.86711100     0.30200
H2436       H  0.55167386  0.93337408  0.78299135     0.30500
C2437       C  0.42111409  0.80179510  0.98001204     0.02600
C2438       C  0.39724256  0.82310568  0.96626181    -0.13500
C2439       C  0.38595844  0.81839825  0.93774775     0.00100
C2440       C  0.39772749  0.79159967  0.92380546    -0.12100
C2441       C  0.42168410  0.77037075  0.93715355     0.02600
C2442       C  0.43325836  0.77546159  0.96533725    -0.11500
H2443       H  0.38887748  0.84378975  0.97735702     0.08200
H2444       H  0.39000080  0.78787266  0.90169403     0.05700
H2445       H  0.45272341  0.75958385  0.97549802     0.05600
C2446       C  0.55098068  0.80222611  0.73260651     0.02600
C2447       C  0.57387440  0.82413617  0.74662514    -0.13500
C2448       C  0.58335596  0.82026397  0.77564595     0.00100
C2449       C  0.57024986  0.79403605  0.78983178    -0.12100
C2450       C  0.54756746  0.77234482  0.77597390     0.02600
C2451       C  0.53821339  0.77630829  0.74734484    -0.11500
H2452       H  0.58301563  0.84442850  0.73530040     0.08200
H2453       H  0.57639912  0.79084414  0.81228341     0.05700
H2454       H  0.51980925  0.75984682  0.73681735     0.05600
Zr2455     Zr  0.45822330  0.81201415  0.65898395     2.17500
O2456       O  0.39880564  0.81479608  0.68601950    -0.51800
O2457       O  0.50159444  0.80770990  0.69919630    -0.75000
O2458       O  0.44026524  0.76224435  0.67903953    -0.81800
O2459       O  0.45902384  0.89723652  0.64777818    -0.83600
O2460       O  0.45139888  0.72681635  0.64451035    -0.79200
O2461       O  0.44107772  0.86096808  0.67986662    -0.90800
O2462       O  0.56300173  0.80772304  0.68343285    -0.76800
O2463       O  0.50700683  0.77773881  0.64439901    -0.86300
O2464       O  0.51179787  0.84300076  0.64651593    -0.86000
O2465       O  0.43124570  0.78490523  0.61917673    -0.72700
O2466       O  0.43778826  0.84486765  0.62073411    -0.84900
Zr2467     Zr  0.51544416  0.81212962  0.55297366     2.26400
Zr2468     Zr  0.48124251  0.75128896  0.60427973     2.06300
Zr2469     Zr  0.49215511  0.87436231  0.60754374     2.10000
Zr2470     Zr  0.56024107  0.80856942  0.63178576     1.78800
O2471       O  0.45434145  0.91673044  0.58914073    -0.93700
O2472       O  0.59648067  0.76306696  0.64446058    -0.41500
O2473       O  0.54141404  0.84027709  0.59267381    -0.78100
O2474       O  0.53641320  0.78056399  0.59183918    -0.96800
O2475       O  0.46097539  0.78271577  0.56576706    -0.90100
O2476       O  0.46711527  0.84737968  0.56742520    -0.92900
C2477       C  0.53782322  0.80662628  0.70320046     1.00800
C2478       C  0.44301766  0.88876012  0.67117579     1.13700
C2479       C  0.43953394  0.73475304  0.66926756     1.04500
O2480       O  0.51691374  0.70637073  0.61941399    -0.95100
O2481       O  0.51431721  0.72608614  0.56584171    -0.90800
O2482       O  0.53210383  0.76181067  0.53319541    -0.84000
C2483       C  0.53018528  0.73412712  0.54243300     1.11200
O2484       O  0.35569926  0.83172388  0.60677225    -0.97100
Zr2485     Zr  0.41301899  0.81784024  0.58049882     1.88900
O2486       O  0.47158988  0.80820385  0.51282850    -0.73700
O2487       O  0.43090720  0.72141601  0.58182529    -0.53000
O2488       O  0.36592147  0.77744513  0.57423466    -0.97700
O2489       O  0.38048618  0.86308509  0.56202394    -0.54900
O2490       O  0.41041667  0.81065656  0.52911816    -0.74200
C2491       C  0.43523095  0.80756868  0.50919003     0.98100
O2492       O  0.57622717  0.81251451  0.52726646    -0.63100
O2493       O  0.54081768  0.90758409  0.62799004    -0.57900
O2494       O  0.53418436  0.86117298  0.53218145    -0.94500
O2495       O  0.52574304  0.89640037  0.56729027    -0.93000
O2496       O  0.60215793  0.85133307  0.64293721    -0.93300
O2497       O  0.62029690  0.80167576  0.60680079    -0.92100
C2498       C  0.53769702  0.88830038  0.54249013     1.16900
H2499       H  0.52012730  0.85545507  0.66237330     0.32900
H2500       H  0.55697274  0.76741448  0.58574381     0.43700
H2501       H  0.46103394  0.86128034  0.55211483     0.37300
H2502       H  0.40916760  0.77339750  0.62527981     0.33700
H2503       H  0.61645142  0.77040371  0.65775511     0.25500
H2504       H  0.43829036  0.69990083  0.58533105     0.31500
H2505       H  0.34788765  0.78557103  0.55987135     0.37400
H2506       H  0.62197962  0.84254027  0.65553813     0.31800
H2507       H  0.56475360  0.90158876  0.61825221     0.30700
H2508       H  0.46334865  0.93489742  0.59980789     0.32400
H2509       H  0.35638413  0.85524951  0.55374306     0.31400
H2510       H  0.61603120  0.81104102  0.58786883     0.35400
H2511       H  0.59157648  0.82897468  0.53616798     0.28100
H2512       H  0.40486728  0.80655577  0.70514448     0.32300
H2513       H  0.36146427  0.82657449  0.62686291     0.35200
H2514       H  0.53496727  0.92816381  0.62039386     0.27800
H2515       H  0.58979121  0.79369339  0.53311846     0.40700
H2516       H  0.54400923  0.71278197  0.61874968     0.30700
H2517       H  0.57898041  0.75089657  0.65652091     0.38300
H2518       H  0.39550061  0.86979793  0.54529616     0.30200
H2519       H  0.40816600  0.72466919  0.59397537     0.30200
H2520       H  0.38167934  0.79942827  0.67723407     0.30500
C2521       C  0.42350165  0.67853653  0.72966905     0.02600
C2522       C  0.39917597  0.65736695  0.71620223    -0.13500
C2523       C  0.38718298  0.66219478  0.68791871     0.00100
C2524       C  0.39914077  0.68874659  0.67370689    -0.12100
C2525       C  0.42333691  0.70999301  0.68683786     0.02600
C2526       C  0.43526544  0.70496286  0.71495745    -0.11500
H2527       H  0.39090137  0.63671109  0.72734474     0.08200
H2528       H  0.39120044  0.69231330  0.65161883     0.05700
H2529       H  0.45467489  0.72097581  0.72503309     0.05600
C2530       C  0.55338810  0.67911893  0.98262157     0.02600
C2531       C  0.57610504  0.65749579  0.99700187    -0.13500
C2532       C  0.58460279  0.66147516  0.52629037     0.00100
C2533       C  0.57071252  0.68770934  0.54029591    -0.12100
C2534       C  0.54829242  0.70936630  0.52598649     0.02600
C2535       C  0.53968563  0.70496241  0.99713069    -0.11500
H2536       H  0.58596153  0.63731374  0.98579561     0.08200
H2537       H  0.57615325  0.69092368  0.56285157     0.05700
H2538       H  0.52144163  0.72120761  0.98621601     0.05600
Zr2539     Zr  0.46083024  0.66967046  0.90910177     2.17500
O2540       O  0.40266355  0.67138431  0.93764406    -0.51800
O2541       O  0.50466915  0.67331574  0.94897056    -0.75000
O2542       O  0.44441950  0.62013497  0.92960499    -0.81800
O2543       O  0.44960652  0.75391204  0.89472677    -0.83600
O2544       O  0.46412488  0.58364130  0.89832207    -0.79200
O2545       O  0.44105169  0.71860324  0.92965425    -0.90800
O2546       O  0.56616922  0.67354842  0.93341396    -0.76800
O2547       O  0.51524842  0.63971824  0.89668669    -0.86300
O2548       O  0.50886887  0.70479185  0.89469601    -0.86000
O2549       O  0.43994812  0.63709646  0.87066547    -0.72700
O2550       O  0.43330279  0.69659107  0.86939832    -0.84900
Zr2551     Zr  0.51735945  0.67002474  0.80315122     2.26400
Zr2552     Zr  0.49519077  0.60802023  0.85781237     2.06300
Zr2553     Zr  0.48243098  0.73110180  0.85496118     2.10000
Zr2554     Zr  0.56282764  0.67507643  0.88171253     1.78800
O2555       O  0.43359639  0.76341230  0.83361773    -0.93700
O2556       O  0.60827769  0.63400945  0.89058810    -0.41500
O2557       O  0.53756718  0.70238150  0.84174362    -0.78100
O2558       O  0.54413994  0.64266669  0.84298859    -0.96800
O2559       O  0.46966432  0.63428010  0.81734599    -0.90100
O2560       O  0.46298672  0.69961137  0.81626923    -0.92900
C2561       C  0.54083395  0.67441035  0.95311160     1.00800
C2562       C  0.43854888  0.74587341  0.91962697     1.13700
C2563       C  0.44706868  0.59221252  0.92127300     1.04500
O2564       O  0.54424724  0.57453406  0.87720261    -0.95100
O2565       O  0.52768999  0.58536644  0.81713555    -0.90800
O2566       O  0.53688703  0.62097487  0.78251500    -0.84000
C2567       C  0.53995534  0.59366372  0.79245937     1.11200
O2568       O  0.35566742  0.65049567  0.85327098    -0.97100
Zr2569     Zr  0.41554118  0.66389212  0.83022330     1.88900
O2570       O  0.47418052  0.67322314  0.76248071    -0.73700
O2571       O  0.45635014  0.56591871  0.83997193    -0.53000
O2572       O  0.38663004  0.61673336  0.81294170    -0.97700
O2573       O  0.36773990  0.70342789  0.82236647    -0.54900
O2574       O  0.41311636  0.66905029  0.77858497    -0.74200
C2575       C  0.43783538  0.67284582  0.75871009     0.98100
O2576       O  0.57827505  0.67091959  0.77763354    -0.63100
O2577       O  0.51957171  0.77532965  0.87040091    -0.57900
O2578       O  0.53244042  0.72014804  0.78338077    -0.94500
O2579       O  0.51552050  0.75572422  0.81651082    -0.93000
O2580       O  0.59472447  0.72195344  0.89668493    -0.93300
O2581       O  0.62170606  0.68546961  0.85606535    -0.92100
C2582       C  0.53057068  0.74769314  0.79280546     1.16900
H2583       H  0.51522862  0.71890358  0.90982831     0.32900
H2584       H  0.56644857  0.63146168  0.83687343     0.43700
H2585       H  0.45434574  0.71261497  0.80096011     0.37300
H2586       H  0.41974493  0.62376212  0.87707403     0.33700
H2587       H  0.62845303  0.64350277  0.90244192     0.25500
H2588       H  0.46499957  0.54775915  0.85077278     0.31500
H2589       H  0.36658589  0.62341668  0.79943325     0.37400
H2590       H  0.61619654  0.71509851  0.90882174     0.31800
H2591       H  0.50144416  0.79269256  0.87016842     0.30700
H2592       H  0.44143353  0.78456811  0.83835768     0.32400
H2593       H  0.34928894  0.69408148  0.80894134     0.31400
H2594       H  0.61433369  0.68516822  0.83570070     0.35400
H2595       H  0.59135448  0.68993489  0.78362719     0.28100
H2596       H  0.40968727  0.66309430  0.95656827     0.32300
H2597       H  0.35795154  0.65908926  0.87273171     0.35200
H2598       H  0.52499313  0.77183388  0.89084502     0.27800
H2599       H  0.59395062  0.65463718  0.78644124     0.40700
H2600       H  0.54330471  0.57788978  0.89806669     0.30700
H2601       H  0.59485996  0.61997696  0.90374853     0.38300
H2602       H  0.38097476  0.71920768  0.81093179     0.30200
H2603       H  0.43031279  0.57008732  0.84719535     0.30200
H2604       H  0.38537505  0.65594492  0.92915662     0.30500
C2605       C  0.38875466  0.55271169  0.97899228     0.02600
C2606       C  0.37663640  0.52646058  0.96423610    -0.13500
C2607       C  0.38892090  0.52116110  0.93628434     0.00100
C2608       C  0.41372568  0.54207508  0.92327858    -0.12100
C2609       C  0.42609016  0.56850332  0.93759889     0.02600
C2610       C  0.41378188  0.57351264  0.96578690    -0.11500
H2611       H  0.35678670  0.51072294  0.97418754     0.08200
H2612       H  0.42185752  0.53838221  0.90124313     0.05700
H2613       H  0.42244866  0.59400706  0.97707455     0.05600
C2614       C  0.59539193  0.55368509  0.73276749     0.02600
C2615       C  0.57152958  0.57492885  0.74675631    -0.13500
C2616       C  0.56102549  0.57026646  0.77549263     0.00100
C2617       C  0.57409188  0.54379013  0.78939914    -0.12100
C2618       C  0.59766618  0.52265328  0.77555921     0.02600
C2619       C  0.60816979  0.52757021  0.74726685    -0.11500
H2620       H  0.56232524  0.59531611  0.73561978     0.08200
H2621       H  0.56722663  0.53997321  0.81164628     0.05700
H2622       H  0.62714308  0.51152541  0.73675762     0.05600
Zr2623     Zr  0.62845704  0.56122303  0.55297303     2.17500
O2624       O  0.57032077  0.55676880  0.52463916    -0.51800
O2625       O  0.67139624  0.55802860  0.51209375    -0.75000
O2626       O  0.60730020  0.61042449  0.53352558    -0.81800
O2627       O  0.62878159  0.97578633  0.56626964    -0.83600
O2628       O  0.61886425  0.64645427  0.56741133    -0.79200
O2629       O  0.60988128  0.51141874  0.53433121    -0.90800
O2630       O  0.39961795  0.56179460  0.52760648    -0.76800
O2631       O  0.34369065  0.59655226  0.56648889    -0.86300
O2632       O  0.34940250  0.53119364  0.56545337    -0.86000
O2633       O  0.60235035  0.58919719  0.59287398    -0.72700
O2634       O  0.60850263  0.52932403  0.59189153    -0.84900
Zr2635     Zr  0.35401379  0.56164349  0.65811328     2.26400
Zr2636     Zr  0.65237075  0.62334423  0.60723559     2.06300
Zr2637     Zr  0.66337672  0.50012422  0.60445914     2.10000
Zr2638     Zr  0.39760379  0.56649282  0.57906837     1.78800
O2639       O  0.62503451  0.95752226  0.62212134    -0.93700
O2640       O  0.42747110  0.61345040  0.56214994    -0.41500
O2641       O  0.38011033  0.53398483  0.61830066    -0.78100
O2642       O  0.37418132  0.59391973  0.61944326    -0.96800
O2643       O  0.63290310  0.59204339  0.64629401    -0.90100
O2644       O  0.63835661  0.52707311  0.64424944    -0.92900
C2645       C  0.37455403  0.55825900  0.50799649     1.00800
C2646       C  0.61234694  0.98399857  0.54315907     1.13700
C2647       C  0.60536095  0.63794902  0.54318665     1.04500
O2648       O  0.35888201  0.66508298  0.58999905    -0.95100
O2649       O  0.35079157  0.64663829  0.64797532    -0.90800
O2650       O  0.36896612  0.61051707  0.68008763    -0.84000
C2651       C  0.36688459  0.63829328  0.67138011     1.11200
O2652       O  0.52548580  0.54516776  0.60712204    -0.97100
Zr2653     Zr  0.58448738  0.55717321  0.63201770     1.88900
O2654       O  0.64455585  0.55821120  0.69893409    -0.73700
O2655       O  0.60669854  0.65911229  0.62774159    -0.53000
O2656       O  0.54073347  0.59949917  0.64032169    -0.97700
O2657       O  0.54966782  0.51251051  0.64923330    -0.54900
O2658       O  0.58290707  0.56004743  0.68372254    -0.74200
C2659       C  0.60835425  0.55827517  0.70328386     0.98100
O2660       O  0.41668720  0.56205650  0.68094754    -0.63100
O2661       O  0.37710989  0.96627767  0.58297863    -0.57900
O2662       O  0.37071343  0.51271396  0.67966995    -0.94500
O2663       O  0.36160263  0.97739520  0.64461661    -0.93000
O2664       O  0.44320115  0.52538686  0.57082091    -0.93300
O2665       O  0.45840780  0.57856689  0.60137224    -0.92100
C2666       C  0.37241592  0.98539452  0.66962158     1.16900
H2667       H  0.35764333  0.51805820  0.55007815     0.32900
H2668       H  0.39455937  0.60718788  0.62569851     0.43700
H2669       H  0.63220739  0.51308030  0.65947345     0.37300
H2670       H  0.57999739  0.60046407  0.58698931     0.33700
H2671       H  0.44696472  0.60666862  0.54822673     0.25500
H2672       H  0.61399329  0.67925470  0.61980010     0.31500
H2673       H  0.52194552  0.59144137  0.65417902     0.37400
H2674       H  0.46054907  0.53331663  0.55589364     0.31800
H2675       H  0.40182909  0.97337196  0.59077963     0.30700
H2676       H  0.63544769  0.93916971  0.61249289     0.32400
H2677       H  0.52767096  0.52095812  0.65991435     0.31400
H2678       H  0.45469157  0.57363905  0.62177209     0.35400
H2679       H  0.43086324  0.54496168  0.67200965     0.28100
H2680       H  0.57625890  0.56614711  0.50595289     0.32300
H2681       H  0.53223569  0.54584845  0.58663881     0.35200
H2682       H  0.37280275  0.94618200  0.59213091     0.27800
H2683       H  0.42975763  0.58049977  0.67357504     0.40700
H2684       H  0.38512626  0.65943255  0.59576421     0.30700
H2685       H  0.40778763  0.62368735  0.55041725     0.38300
H2686       H  0.56600690  0.50321876  0.66408495     0.30200
H2687       H  0.58209497  0.65416941  0.61844112     0.30200
H2688       H  0.55165337  0.57072712  0.53369420     0.30500
C2689       C  0.72100047  0.42924361  0.22994740     0.02600
C2690       C  0.74497762  0.40788865  0.21633011    -0.13500
C2691       C  0.75681939  0.41271624  0.18799127     0.00100
C2692       C  0.74558466  0.43955746  0.17410699    -0.12100
C2693       C  0.72151498  0.46074811  0.18729990     0.02600
C2694       C  0.70921383  0.45562663  0.21528177    -0.11500
H2695       H  0.75312295  0.38716034  0.22739746     0.08200
H2696       H  0.75378656  0.44334061  0.15210067     0.05700
H2697       H  0.68973118  0.47160612  0.22532180     0.05600
C2698       C  0.92614912  0.42895334  0.48315324     0.02600
C2699       C  0.93895020  0.45483564  0.49799502    -0.13500
C2700       C  0.92850139  0.45912619  0.02649153     0.00100
C2701       C  0.90529916  0.43766438  0.04010946    -0.12100
C2702       C  0.89214842  0.41147148  0.02574528     0.02600
C2703       C  0.90248211  0.40743796  0.49690505    -0.11500
H2704       H  0.95779445  0.47108469  0.48765292     0.08200
H2705       H  0.89873107  0.44104265  0.06247964     0.05700
H2706       H  0.89317314  0.38723164  0.48547708     0.05600
Zr2707     Zr  0.96044956  0.41985771  0.30319619     2.17500
O2708       O  0.90223337  0.41771132  0.27476480    -0.51800
O2709       O  0.00415542  0.42362172  0.26295305    -0.75000
O2710       O  0.94403401  0.47012170  0.28351741    -0.81800
O2711       O  0.94996511  0.33563846  0.31715748    -0.83600
O2712       O  0.96433363  0.00591785  0.31536954    -0.79200
O2713       O  0.93940640  0.37126778  0.28281469    -0.90800
O2714       O  0.73202802  0.42044186  0.27879383    -0.76800
O2715       O  0.68181591  0.44906834  0.31580508    -0.86300
O2716       O  0.67507944  0.38417237  0.31702894    -0.86000
O2717       O  0.93939328  0.45176039  0.34199158    -0.72700
O2718       O  0.93453975  0.39201376  0.34315066    -0.84900
Zr2719     Zr  0.68492279  0.41958166  0.40895042     2.26400
Zr2720     Zr  0.99507343  0.48049330  0.35453167     2.06300
Zr2721     Zr  0.98376397  0.35752719  0.35753004     2.10000
Zr2722     Zr  0.72936401  0.41339145  0.33001410     1.78800
O2723       O  0.93643677  0.32349878  0.37841241    -0.93700
O2724       O  0.77851960  0.45208548  0.32313631    -0.41500
O2725       O  0.70512383  0.38677411  0.37059292    -0.78100
O2726       O  0.71143705  0.44634111  0.36877993    -0.96800
O2727       O  0.96977789  0.45415636  0.39467773    -0.90100
O2728       O  0.96425076  0.38903964  0.39654292    -0.92900
C2729       C  0.70706264  0.42377972  0.25907821     1.00800
C2730       C  0.93708936  0.34390468  0.29266862     1.13700
C2731       C  0.94772476  0.49789671  0.29218494     1.04500
O2732       O  0.70860771  0.01513810  0.33395489    -0.95100
O2733       O  0.69479525  0.00431236  0.39372088    -0.90800
O2734       O  0.70281150  0.46944563  0.42888889    -0.84000
C2735       C  0.70539918  0.49664610  0.41861871     1.11200
O2736       O  0.85593574  0.43348415  0.35792581    -0.97100
Zr2737     Zr  0.91593681  0.42395571  0.38233316     1.88900
O2738       O  0.97544571  0.42436737  0.44943731    -0.73700
O2739       O  0.95588675  0.02121414  0.37459659    -0.53000
O2740       O  0.88461647  0.47040231  0.39904375    -0.97700
O2741       O  0.87030467  0.38308735  0.39158779    -0.54900
O2742       O  0.91385969  0.42270734  0.43406993    -0.74200
C2743       C  0.93922029  0.42457320  0.45368374     0.98100
O2744       O  0.74619826  0.41941800  0.43386051    -0.63100
O2745       O  0.68863295  0.31426368  0.34140319    -0.57900
O2746       O  0.69962416  0.37020592  0.43044245    -0.94500
O2747       O  0.68468637  0.33442377  0.39704322    -0.93000
O2748       O  0.75602680  0.36576654  0.31174068    -0.93300
O2749       O  0.78869653  0.39900416  0.35327941    -0.92100
C2750       C  0.69927910  0.34257958  0.42105048     1.16900
H2751       H  0.68097852  0.37033828  0.30157986     0.32900
H2752       H  0.73376139  0.45769092  0.37465891     0.43700
H2753       H  0.95602244  0.37657114  0.41238596     0.37300
H2754       H  0.91911589  0.46515192  0.33585706     0.33700
H2755       H  0.79622038  0.44304042  0.30899437     0.25500
H2756       H  0.96437961  0.04003936  0.36475158     0.31500
H2757       H  0.86165576  0.46323379  0.40938737     0.38200
H2758       H  0.77855835  0.37201835  0.30041291     0.31800
H2759       H  0.67148290  0.29634002  0.34288987     0.30700
H2760       H  0.94605729  0.30264838  0.37440921     0.32400
H2761       H  0.85220853  0.39186851  0.40559574     0.31400
H2762       H  0.78436812  0.40351091  0.37371112     0.35400
H2763       H  0.75927094  0.40039250  0.42790058     0.28100
H2764       H  0.90909113  0.42648686  0.25600018     0.32300
H2765       H  0.86062001  0.42682951  0.33805073     0.35200
H2766       H  0.69206374  0.31734908  0.32066218     0.27800
H2767       H  0.76142471  0.43570884  0.42462101     0.40700
H2768       H  0.73322368  0.00910996  0.34264904     0.30700
H2769       H  0.76553268  0.46873400  0.31266248     0.38300
H2770       H  0.88478586  0.36760824  0.40251193     0.30200
H2771       H  0.92988255  0.01733884  0.36716972     0.30200
H2772       H  0.88475021  0.43282211  0.28352621     0.30500
C2773       C  0.75433080  0.30178500  0.48002690     0.02600
C2774       C  0.73055342  0.32320535  0.46633610    -0.13500
C2775       C  0.71909711  0.31854488  0.43785702     0.00100
C2776       C  0.73058231  0.29168843  0.42387528    -0.12100
C2777       C  0.75453299  0.27039138  0.43711275     0.02600
C2778       C  0.76629343  0.27543335  0.46527840    -0.11500
H2779       H  0.72236622  0.34392044  0.47745649     0.08200
H2780       H  0.72268795  0.28798165  0.40179381     0.05700
H2781       H  0.78574138  0.25949322  0.47536910     0.05600
C2782       C  0.88417121  0.30221293  0.23269823     0.02600
C2783       C  0.90705161  0.32412282  0.24674152    -0.13500
C2784       C  0.91666033  0.32019039  0.27574148     0.00100
C2785       C  0.90371751  0.29387628  0.28988177    -0.12100
C2786       C  0.88093928  0.27223731  0.27604281     0.02600
C2787       C  0.87140674  0.27629204  0.24744826    -0.11500
H2788       H  0.91612515  0.34444867  0.23544073     0.08200
H2789       H  0.91002607  0.29058769  0.31229668     0.05700
H2790       H  0.85294370  0.25985807  0.23694189     0.05600
Zr2791     Zr  0.79164815  0.31200017  0.15888770     2.17500
O2792       O  0.73293440  0.31544759  0.18665511    -0.51800
O2793       O  0.83490176  0.30758788  0.19915210    -0.75000
O2794       O  0.77341283  0.26224519  0.17873024    -0.81800
O2795       O  0.79275274  0.39736366  0.14775503    -0.83600
O2796       O  0.78427433  0.22671164  0.14424199    -0.79200
O2797       O  0.77450900  0.36101918  0.17966917    -0.90800
O2798       O  0.89633155  0.30771012  0.18348910    -0.76800
O2799       O  0.84032772  0.27763559  0.14436242    -0.86300
O2800       O  0.84523159  0.34289459  0.14641084    -0.86000
O2801       O  0.76459127  0.28472806  0.11917581    -0.72700
O2802       O  0.77116483  0.34476346  0.12062079    -0.84900
Zr2803     Zr  0.84880158  0.31182421  0.05292282     2.26400
Zr2804     Zr  0.81459084  0.25110286  0.10426589     2.06300
Zr2805     Zr  0.82550348  0.37421350  0.10743850     2.10000
Zr2806     Zr  0.89360546  0.30838264  0.13178848     1.78800
O2807       O  0.78705631  0.41607251  0.08878079    -0.93700
O2808       O  0.92921126  0.26264460  0.14472662    -0.41500
O2809       O  0.87473539  0.34003187  0.09262840    -0.78100
O2810       O  0.86983739  0.28029262  0.09181259    -0.96800
O2811       O  0.79431240  0.28244188  0.06572222    -0.90100
O2812       O  0.80047922  0.34711534  0.06735360    -0.92900
C2813       C  0.87110979  0.30657512  0.20323352     1.00800
C2814       C  0.77662209  0.38884553  0.17110112     1.13700
C2815       C  0.77253517  0.23475085  0.16899415     1.04500
O2816       O  0.85018377  0.20647800  0.12025496    -0.95100
O2817       O  0.84746405  0.22585152  0.06580326    -0.90800
O2818       O  0.86496989  0.26152421  0.03302543    -0.84000
C2819       C  0.86313520  0.23387566  0.04232409     1.11200
O2820       O  0.68956650  0.33161569  0.10726755    -0.97100
Zr2821     Zr  0.74639298  0.31758059  0.08048565     1.88900
O2822       O  0.80484910  0.30789408  0.01277136    -0.73700
O2823       O  0.76470215  0.22081335  0.08171907    -0.53000
O2824       O  0.69936670  0.27709429  0.07444751    -0.97700
O2825       O  0.71272941  0.36234993  0.06224326    -0.54900
O2826       O  0.74369684  0.31068917  0.02906351    -0.74200
C2827       C  0.76846961  0.30744260  0.00913087     0.98100
O2828       O  0.90979850  0.31174414  0.02745675    -0.63100
O2829       O  0.87349743  0.40797445  0.12804794    -0.57900
O2830       O  0.86791248  0.36074146  0.03211663    -0.94500
O2831       O  0.85897378  0.39606520  0.06708470    -0.93000
O2832       O  0.93531659  0.35121971  0.14312363    -0.93300
O2833       O  0.95384120  0.30187632  0.10696110    -0.92100
C2834       C  0.87116801  0.38791500  0.04236967     1.16900
H2835       H  0.85356628  0.35536348  0.16225629     0.32900
H2836       H  0.89036228  0.26710889  0.08570907     0.43700
H2837       H  0.79432084  0.36097082  0.05202258     0.37300
H2838       H  0.74249104  0.27325451  0.12528829     0.33700
H2839       H  0.94822114  0.26965707  0.15892523     0.25500
H2840       H  0.77223424  0.19935366  0.08534972     0.31500
H2841       H  0.68256893  0.28435691  0.05889524     0.37400
H2842       H  0.95502282  0.34247850  0.15585641     0.31800
H2843       H  0.89722408  0.40336491  0.11741105     0.30700
H2844       H  0.79839120  0.43477775  0.09714957     0.32400
H2845       H  0.68901398  0.35411793  0.05367469     0.31400
H2846       H  0.94883230  0.30935669  0.08741035     0.35400
H2847       H  0.92525461  0.32808616  0.03644431     0.28100
H2848       H  0.73916837  0.30673750  0.20556660     0.32300
H2849       H  0.69633415  0.32807021  0.12748675     0.35200
H2850       H  0.86617555  0.42872348  0.12165724     0.27800
H2851       H  0.92311538  0.29281355  0.03332632     0.40700
H2852       H  0.87735294  0.21213139  0.11778886     0.30700
H2853       H  0.91098596  0.25009395  0.15581295     0.38300
H2854       H  0.72782940  0.36954525  0.04573485     0.30200
H2855       H  0.74183488  0.22400390  0.09375120     0.30200
H2856       H  0.71520429  0.30055717  0.17783097     0.30500
C2857       C  0.75672778  0.17879580  0.22958409     0.02600
C2858       C  0.73234227  0.15759803  0.21618410    -0.13500
C2859       C  0.72030913  0.16233210  0.18788375     0.00100
C2860       C  0.73212741  0.18887550  0.17363000    -0.12100
C2861       C  0.75638861  0.21010781  0.18666108     0.02600
C2862       C  0.76849967  0.20514088  0.21475119    -0.11500
H2863       H  0.72408631  0.13697503  0.22738261     0.08200
H2864       H  0.72408226  0.19243377  0.15155971     0.05700
H2865       H  0.78801003  0.22115592  0.22471322     0.05600
C2866       C  0.88649799  0.17916049  0.48280000     0.02600
C2867       C  0.90920800  0.15750896  0.49716437    -0.13500
C2868       C  0.91793965  0.16152228  0.02615351     0.00100
C2869       C  0.90388637  0.18766935  0.04017161    -0.12100
C2870       C  0.88123374  0.20916965  0.02589071     0.02600
C2871       C  0.87304976  0.20509914  0.49730783    -0.11500
H2872       H  0.91892089  0.13727555  0.48596978     0.08200
H2873       H  0.90936644  0.19092455  0.06271780     0.05700
H2874       H  0.85484546  0.22139233  0.48642048     0.05600
Zr2875     Zr  0.79397042  0.16972381  0.40912455     2.17500
O2876       O  0.73605000  0.17157659  0.43793885    -0.51800
O2877       O  0.83766993  0.17362442  0.44910879    -0.75000
O2878       O  0.77716078  0.12023374  0.42942356    -0.81800
O2879       O  0.78222589  0.25390972  0.39455682    -0.83600
O2880       O  0.79715717  0.08371058  0.39829104    -0.79200
O2881       O  0.77390033  0.21864347  0.42953348    -0.90800
O2882       O  0.89918075  0.17325393  0.43359095    -0.76800
O2883       O  0.84847827  0.13975572  0.39685397    -0.86300
O2884       O  0.84199259  0.20484139  0.39477310    -0.86000
O2885       O  0.77332307  0.13709885  0.37062541    -0.72700
O2886       O  0.76643470  0.19655457  0.36938273    -0.84900
Zr2887     Zr  0.85062031  0.16994197  0.30320198     2.26400
Zr2888     Zr  0.82863151  0.10800876  0.35794561     2.06300
Zr2889     Zr  0.81553756  0.23105251  0.35499093     2.10000
Zr2890     Zr  0.89599999  0.17515132  0.38186070     1.78800
O2891       O  0.76675752  0.26310546  0.33326174    -0.93700
O2892       O  0.94224274  0.13465713  0.39074215    -0.41500
O2893       O  0.87069352  0.20232454  0.34182140    -0.78100
O2894       O  0.87748531  0.14268623  0.34309898    -0.96800
O2895       O  0.80297675  0.13418091  0.31746106    -0.90100
O2896       O  0.79625752  0.19952698  0.31630681    -0.92900
C2897       C  0.87384766  0.17444066  0.45328255     1.00800
C2898       C  0.77126815  0.24589275  0.41949128     1.13700
C2899       C  0.77991283  0.09231243  0.42114425     1.04500
O2900       O  0.87816342  0.07529895  0.37784323    -0.95100
O2901       O  0.86092042  0.08544660  0.31709657    -0.90800
O2902       O  0.86979004  0.12094795  0.28233805    -0.84000
C2903       C  0.87301770  0.09368297  0.29235357     1.11200
O2904       O  0.68944807  0.15040964  0.35400951    -0.97100
Zr2905     Zr  0.74880195  0.16382817  0.33019959     1.88900
O2906       O  0.80745977  0.17353015  0.26246017    -0.73700
O2907       O  0.79094548  0.06496052  0.34067503    -0.53000
O2908       O  0.72024660  0.11668457  0.31256654    -0.97700
O2909       O  0.70072807  0.20319461  0.32245606    -0.54900
O2910       O  0.74637442  0.16929591  0.27853991    -0.74200
C2911       C  0.77109880  0.17316233  0.25866311     0.98100
O2912       O  0.91187094  0.17022181  0.27812609    -0.63100
O2913       O  0.85236132  0.27523084  0.37087480    -0.57900
O2914       O  0.86603608  0.22001152  0.28350366    -0.94500
O2915       O  0.84873454  0.25561089  0.31652193    -0.93000
O2916       O  0.92700268  0.22241171  0.39681639    -0.93300
O2917       O  0.95501854  0.18553871  0.35637254    -0.92100
C2918       C  0.86397850  0.24756876  0.29287889     1.16900
H2919       H  0.84827913  0.21897338  0.40990588     0.32900
H2920       H  0.89981610  0.13149658  0.33700009     0.43700
H2921       H  0.78764040  0.21255304  0.30100880     0.37300
H2922       H  0.75311580  0.12374347  0.37697707     0.33700
H2923       H  0.96222684  0.14439778  0.40260482     0.25500
H2924       H  0.79905357  0.04731100  0.35240686     0.31500
H2925       H  0.69916816  0.12341466  0.29998950     0.37400
H2926       H  0.94861896  0.21580849  0.40893054     0.31800
H2927       H  0.83455532  0.29274532  0.36951442     0.30700
H2928       H  0.76897071  0.28305893  0.34311568     0.32400
H2929       H  0.68142481  0.19334167  0.31005507     0.31400
H2930       H  0.94710374  0.18868052  0.33633696     0.35400
H2931       H  0.92486683  0.18937241  0.28383395     0.28100
H2932       H  0.74322912  0.16332517  0.45684579     0.32300
H2933       H  0.69206193  0.15918155  0.37338056     0.35200
H2934       H  0.85625072  0.27224235  0.39158375     0.27800
H2935       H  0.92739676  0.15414188  0.28739872     0.40700
H2936       H  0.87467308  0.07658378  0.39875522     0.30700
H2937       H  0.92909066  0.12044521  0.40388718     0.38300
H2938       H  0.71330307  0.21839751  0.30997310     0.30200
H2939       H  0.76452348  0.06936466  0.34693472     0.30200
H2940       H  0.71862322  0.15615815  0.42957875     0.30500
C2941       C  0.72169410  0.05280588  0.47888813     0.02600
C2942       C  0.70978578  0.02646025  0.46417987    -0.13500
C2943       C  0.72212006  0.02115781  0.43623400     0.00100
C2944       C  0.74687389  0.04208710  0.42321849    -0.12100
C2945       C  0.75893346  0.06863585  0.43745986     0.02600
C2946       C  0.74646303  0.07373075  0.46559459    -0.11500
H2947       H  0.69005115  0.01065242  0.47415886     0.08200
H2948       H  0.75515057  0.03832800  0.40122136     0.05700
H2949       H  0.75490839  0.09433018  0.47680781     0.05600
C2950       C  0.92882220  0.05384504  0.23278929     0.02600
C2951       C  0.90485608  0.07504006  0.24673400    -0.13500
C2952       C  0.89414250  0.07029259  0.27541204     0.00100
C2953       C  0.90714056  0.04378120  0.28931108    -0.12100
C2954       C  0.93083390  0.02268649  0.27551299     0.02600
C2955       C  0.94154400  0.02770502  0.24728061    -0.11500
H2956       H  0.89571781  0.09545155  0.23560490     0.08200
H2957       H  0.90014340  0.03991017  0.31152663     0.05700
H2958       H  0.96060150  0.01169977  0.23680528     0.05600
Zr2959     Zr  0.96177467  0.06138805  0.05290249     2.17500
O2960       O  0.90333068  0.05741645  0.02480958    -0.51800
O2961       O  0.00492949  0.05821642  0.01212017    -0.75000
O2962       O  0.94072761  0.11054439  0.03338960    -0.81800
O2963       O  0.96141490  0.47566819  0.06673594    -0.83600
O2964       O  0.95214555  0.14653004  0.06732989    -0.79200
O2965       O  0.94340005  0.01154819  0.03409413    -0.90800
O2966       O  0.73302851  0.06169292  0.02769537    -0.76800
O2967       O  0.67696998  0.09659806  0.06656625    -0.86300
O2968       O  0.68266973  0.03125558  0.06543460    -0.86000
O2969       O  0.93561337  0.08930047  0.09283309    -0.72700
O2970       O  0.94174146  0.02956184  0.09185309    -0.84900
Zr2971     Zr  0.68731119  0.06176101  0.15817119     2.26400
Zr2972     Zr  0.98560311  0.12340846  0.10722005     2.06300
Zr2973     Zr  0.99651472  0.00025011  0.10438007     2.10000
Zr2974     Zr  0.73089945  0.06651768  0.07913809     1.78800
O2975       O  0.95880578  0.45721701  0.12193249    -0.93700
O2976       O  0.76108768  0.11310332  0.06163170    -0.41500
O2977       O  0.71332030  0.03407000  0.11836531    -0.78100
O2978       O  0.70743971  0.09404768  0.11944877    -0.96800
O2979       O  0.96626972  0.09212381  0.14629404    -0.90100
O2980       O  0.97162911  0.02720188  0.14422877    -0.92900
C2981       C  0.70797281  0.05833562  0.00805124     1.00800
C2982       C  0.94557376  0.48378034  0.04336507     1.13700
C2983       C  0.93872646  0.13804335  0.04306944     1.04500
O2984       O  0.69037303  0.16603874  0.09006275    -0.95100
O2985       O  0.68444197  0.14662347  0.14774294    -0.90800
O2986       O  0.70181748  0.11066781  0.18025057    -0.84000
C2987       C  0.70010413  0.13838321  0.17134309     1.11200
O2988       O  0.85883843  0.04528354  0.10709816    -0.97100
Zr2989     Zr  0.91778555  0.05733236  0.13204307     1.88900
O2990       O  0.97799286  0.05821328  0.19895060    -0.73700
O2991       O  0.93911898  0.15800492  0.12841317    -0.53000
O2992       O  0.87398725  0.09956447  0.14068566    -0.97700
O2993       O  0.88333037  0.01239731  0.14904060    -0.54900
O2994       O  0.91634349  0.06035931  0.18376140    -0.74200
C2995       C  0.94179869  0.05844244  0.20331266     0.98100
O2996       O  0.74988705  0.06234357  0.18116400    -0.63100
O2997       O  0.71063645  0.46670980  0.08267303    -0.57900
O2998       O  0.70444570  0.01285730  0.17960204    -0.94500
O2999       O  0.69449113  0.47734006  0.14477674    -0.93000
O3000       O  0.77633161  0.02505684  0.07198666    -0.93300
O3001       O  0.79180739  0.07861844  0.10129106    -0.92100
C3002       C  0.70561412  0.48537067  0.16969555     1.16900
H3003       H  0.69089319  0.01812240  0.05005296     0.32900
H3004       H  0.72782176  0.10733401  0.12566399     0.43700
H3005       H  0.96550821  0.01320593  0.15945471     0.37300
H3006       H  0.91326300  0.10057232  0.08694966     0.33700
H3007       H  0.78247392  0.10599246  0.04951673     0.25500
H3008       H  0.94591807  0.17840992  0.12081919     0.31500
H3009       H  0.85310834  0.09052868  0.15214235     0.37400
H3010       H  0.79346177  0.03233944  0.05664046     0.31800
H3011       H  0.73515549  0.47298542  0.09138082     0.30700
H3012       H  0.97085719  0.43881149  0.11354035     0.32400
H3013       H  0.86136692  0.02067810  0.15986934     0.31400
H3014       H  0.78800603  0.07413266  0.12177065     0.35400
H3015       H  0.76427888  0.04543470  0.17211152     0.28100
H3016       H  0.90915585  0.06678895  0.00609982     0.32300
H3017       H  0.86560164  0.04604765  0.08661951     0.35200
H3018       H  0.70544185  0.44625072  0.09081315     0.27800
H3019       H  0.76281258  0.08094517  0.17399917     0.40700
H3020       H  0.71691506  0.15830418  0.09020962     0.30700
H3021       H  0.74258189  0.12197907  0.04801229     0.38300
H3022       H  0.89980693  0.00302347  0.16375974     0.30200
H3023       H  0.91463907  0.15287392  0.11902394     0.30200
H3024       H  0.88485127  0.07145063  0.03398381     0.30500
C3025       C  0.72097636  0.42934037  0.72998771     0.02600
C3026       C  0.74464848  0.40781753  0.71633359    -0.13500
C3027       C  0.75664639  0.41263865  0.68804461     0.00100
C3028       C  0.74571032  0.43956312  0.67417510    -0.12100
C3029       C  0.72177761  0.46086086  0.68734592     0.02600
C3030       C  0.70950018  0.45584227  0.71535968    -0.11500
H3031       H  0.75250303  0.38699541  0.72736400     0.08200
H3032       H  0.75400592  0.44332689  0.65218608     0.05700
H3033       H  0.69021171  0.47195271  0.72542633     0.05600
C3034       C  0.92610288  0.42882623  0.98320095     0.02600
C3035       C  0.93880257  0.45473096  0.99807394    -0.13500
C3036       C  0.92878998  0.45919625  0.52643600     0.00100
C3037       C  0.90563275  0.43774646  0.54011405    -0.12100
C3038       C  0.89237726  0.41157444  0.52578249     0.02600
C3039       C  0.90235452  0.40732958  0.99689539    -0.11500
H3040       H  0.95768388  0.47097872  0.98777335     0.08200
H3041       H  0.89915518  0.44112960  0.56249778     0.05700
H3042       H  0.89309381  0.38711409  0.98545765     0.05600
Zr3043     Zr  0.96045708  0.41991074  0.80329236     2.17500
O3044       O  0.90246126  0.41798225  0.77458267    -0.51800
O3045       O  0.00420905  0.42356531  0.76308162    -0.75000
O3046       O  0.94398359  0.47007881  0.78361661    -0.81800
O3047       O  0.95036544  0.33564210  0.81690212    -0.83600
O3048       O  0.96441124  0.00585810  0.81531808    -0.79200
O3049       O  0.93887144  0.37149881  0.78294412    -0.90800
O3050       O  0.73203508  0.42043432  0.77881052    -0.76800
O3051       O  0.68194897  0.44897566  0.81591870    -0.86300
O3052       O  0.67523758  0.38418939  0.81701781    -0.86000
O3053       O  0.93944503  0.45174970  0.84215281    -0.72700
O3054       O  0.93455255  0.39195945  0.84314629    -0.84900
Zr3055     Zr  0.68519976  0.41950334  0.90901977     2.26400
Zr3056     Zr  0.99519825  0.48044301  0.85462929     2.06300
Zr3057     Zr  0.98386947  0.35751630  0.85742418     2.10000
Zr3058     Zr  0.72956107  0.41335785  0.83005904     1.78800
O3059       O  0.93607015  0.32372237  0.87800535    -0.93700
O3060       O  0.77834158  0.45230420  0.82289195    -0.41500
O3061       O  0.70523115  0.38673299  0.87058710    -0.78100
O3062       O  0.71177368  0.44632049  0.86888089    -0.96800
O3063       O  0.96988620  0.45402247  0.89475649    -0.90100
O3064       O  0.96448210  0.38891611  0.89655302    -0.92900
C3065       C  0.70704946  0.42386897  0.75911497     1.00800
C3066       C  0.93698817  0.34404630  0.79260667     1.13700
C3067       C  0.94791402  0.49783659  0.79221539     1.04500
O3068       O  0.70874186  0.01487433  0.83362829    -0.95100
O3069       O  0.69457196  0.00437891  0.89374772    -0.90800
O3070       O  0.70334328  0.46926176  0.92910581    -0.84000
C3071       C  0.70557074  0.49651899  0.91891056     1.11200
O3072       O  0.85560469  0.43288408  0.85853487    -0.97100
Zr3073     Zr  0.91606701  0.42376451  0.88243773     1.88900
O3074       O  0.97550100  0.42467696  0.94945374    -0.73700
O3075       O  0.95659426  0.02141746  0.87471281    -0.53000
O3076       O  0.88470410  0.47025385  0.89900269    -0.97700
O3077       O  0.87095141  0.38250588  0.89162489    -0.54900
O3078       O  0.91394539  0.42204766  0.93415568    -0.74200
C3079       C  0.93927454  0.42442352  0.95374054     0.98100
O3080       O  0.74640988  0.41861296  0.93404725    -0.63100
O3081       O  0.68830649  0.31416909  0.84106674    -0.57900
O3082       O  0.69958176  0.36997430  0.93033371    -0.94500
O3083       O  0.68468881  0.33418516  0.89691035    -0.93000
O3084       O  0.75645181  0.36567921  0.81206845    -0.93300
O3085       O  0.78872122  0.39884970  0.85351632    -0.92100
C3086       C  0.69923827  0.34234758  0.92093521     1.16900
H3087       H  0.68112302  0.37038322  0.80154479     0.32900
H3088       H  0.73408793  0.45768434  0.87476292     0.43700
H3089       H  0.95630632  0.37639848  0.91237600     0.37300
H3090       H  0.91919085  0.46518846  0.83606281     0.33700
H3091       H  0.79619228  0.44321876  0.80887952     0.25500
H3092       H  0.96513278  0.04016847  0.86476754     0.31500
H3093       H  0.86213974  0.46309120  0.90982433     0.38200
H3094       H  0.77848634  0.37195004  0.80021853     0.31800
H3095       H  0.67058491  0.29653682  0.84148123     0.30700
H3096       H  0.94527320  0.30283386  0.87364454     0.32400
H3097       H  0.85271232  0.39111459  0.90562134     0.31400
H3098       H  0.78416934  0.40309251  0.87397045     0.35400
H3099       H  0.75962609  0.39991070  0.92740324     0.28100
H3100       H  0.90961057  0.42647173  0.75576258     0.32300
H3101       H  0.86097697  0.42900297  0.83812959     0.35200
H3102       H  0.69288958  0.31794765  0.82055120     0.27800
H3103       H  0.76158174  0.43535193  0.92547957     0.40700
H3104       H  0.73274101  0.01065810  0.84404428     0.30700
H3105       H  0.76521688  0.46874186  0.81222224     0.38300
H3106       H  0.88560433  0.36713731  0.90255640     0.30200
H3107       H  0.93048016  0.01765108  0.86745886     0.30200
H3108       H  0.88506127  0.43332199  0.78308828     0.30500
C3109       C  0.75427063  0.30174101  0.98002826     0.02600
C3110       C  0.73044764  0.32308899  0.96627911    -0.13500
C3111       C  0.71905204  0.31835311  0.93779172     0.00100
C3112       C  0.73068028  0.29151454  0.92385927    -0.12100
C3113       C  0.75462010  0.27026991  0.93718436     0.02600
C3114       C  0.76626802  0.27535731  0.96535764    -0.11500
H3115       H  0.72220197  0.34381774  0.97735196     0.08200
H3116       H  0.72290810  0.28778456  0.90175592     0.05700
H3117       H  0.78570471  0.25944739  0.97550264     0.05600
C3118       C  0.88391112  0.30233453  0.73273595     0.02600
C3119       C  0.90684073  0.32425795  0.74671959    -0.13500
C3120       C  0.91642669  0.32038574  0.77572807     0.00100
C3121       C  0.90334268  0.29417335  0.78994096    -0.12100
C3122       C  0.88056567  0.27251747  0.77612960     0.02600
C3123       C  0.87111109  0.27646963  0.74752422    -0.11500
H3124       H  0.91598336  0.34453224  0.73536862     0.08200
H3125       H  0.90958861  0.29096661  0.81237661     0.05700
H3126       H  0.85265692  0.26001035  0.73704138     0.05600
Zr3127     Zr  0.79145225  0.31199611  0.65895237     2.17500
O3128       O  0.73187488  0.31515949  0.68572143    -0.51800
O3129       O  0.83458431  0.30766122  0.69926507    -0.75000
O3130       O  0.77342686  0.26221000  0.67899952    -0.81800
O3131       O  0.79245672  0.39720093  0.64781703    -0.83600
O3132       O  0.78492882  0.22675118  0.64457123    -0.79200
O3133       O  0.77441369  0.36093308  0.67988166    -0.90800
O3134       O  0.89601229  0.30769553  0.68354472    -0.76800
O3135       O  0.84031406  0.27776243  0.64441770    -0.86300
O3136       O  0.84502885  0.34300392  0.64651115    -0.86000
O3137       O  0.76441119  0.28489905  0.61918505    -0.72700
O3138       O  0.77114994  0.34483492  0.62067240    -0.84900
Zr3139     Zr  0.84871783  0.31204840  0.55297410     2.26400
Zr3140     Zr  0.81445911  0.25134086  0.60431984     2.06300
Zr3141     Zr  0.82550024  0.37433036  0.60749821     2.10000
Zr3142     Zr  0.89354192  0.30864285  0.63185746     1.78800
O3143       O  0.78779567  0.41667521  0.58896393    -0.93700
O3144       O  0.93032831  0.26335389  0.64430550    -0.41500
O3145       O  0.87471752  0.34022028  0.59265976    -0.78100
O3146       O  0.86974655  0.28054398  0.59189825    -0.96800
O3147       O  0.79421773  0.28269519  0.56576181    -0.90100
O3148       O  0.80039070  0.34733332  0.56739468    -0.92900
C3149       C  0.87080303  0.30662857  0.70330034     1.00800
C3150       C  0.77640597  0.38872624  0.67120714     1.13700
C3151       C  0.77291275  0.23468790  0.66927830     1.04500
O3152       O  0.84941211  0.20597433  0.61917903    -0.95100
O3153       O  0.84749807  0.22597262  0.56605516    -0.90800
O3154       O  0.86506251  0.26164368  0.53330007    -0.84000
C3155       C  0.86320579  0.23398538  0.54259201     1.11200
O3156       O  0.68894092  0.33196922  0.60664863    -0.97100
Zr3157     Zr  0.74626325  0.31782829  0.58047275     1.88900
O3158       O  0.80486598  0.30811573  0.51277673    -0.73700
O3159       O  0.76375776  0.22192892  0.58178941    -0.53000
O3160       O  0.69914900  0.27743213  0.57427170    -0.97700
O3161       O  0.71388566  0.36317003  0.56203319    -0.54900
O3162       O  0.74369591  0.31046110  0.52909899    -0.74200
C3163       C  0.76849422  0.30742184  0.50914983     0.98100
O3164       O  0.90951317  0.31283322  0.52728002    -0.63100
O3165       O  0.87411057  0.40755632  0.62802003    -0.57900
O3166       O  0.86781097  0.36093802  0.53211393    -0.94500
O3167       O  0.85925598  0.39617033  0.56720411    -0.93000
O3168       O  0.93485839  0.35163470  0.64355936    -0.93300
O3169       O  0.95386183  0.30271200  0.60701782    -0.92100
C3170       C  0.87131702  0.38805842  0.54243249     1.16900
H3171       H  0.85331653  0.35546814  0.66237405     0.32900
H3172       H  0.89029773  0.26737685  0.58581565     0.43700
H3173       H  0.79426354  0.36122892  0.55208679     0.37300
H3174       H  0.74234050  0.27338477  0.62529305     0.33700
H3175       H  0.94991716  0.27071362  0.65790275     0.25500
H3176       H  0.77171581  0.20036348  0.58414973     0.31500
H3177       H  0.68019807  0.28606638  0.56085612     0.37400
H3178       H  0.95502527  0.34279291  0.65582223     0.31800
H3179       H  0.89793902  0.40201303  0.61790866     0.30700
H3180       H  0.79649587  0.43479399  0.59984089     0.32400
H3181       H  0.68877122  0.35573885  0.55524001     0.31400
H3182       H  0.94940656  0.31191471  0.58804145     0.35400
H3183       H  0.92528590  0.32842517  0.53708858     0.28100
H3184       H  0.73778662  0.30701030  0.70490516     0.32300
H3185       H  0.69582830  0.32974774  0.62700771     0.35200
H3186       H  0.86779746  0.42824250  0.62089682     0.27800
H3187       H  0.92256813  0.29343339  0.53202208     0.40700
H3188       H  0.87627594  0.21281523  0.62072706     0.30700
H3189       H  0.91280943  0.25082884  0.65602909     0.38300
H3190       H  0.72764313  0.36876174  0.54436741     0.30200
H3191       H  0.74149894  0.22424041  0.59460680     0.30200
H3192       H  0.71476238  0.29977514  0.67694862     0.30500
C3193       C  0.75675708  0.17846834  0.72966944     0.02600
C3194       C  0.73240527  0.15731883  0.71620036    -0.13500
C3195       C  0.72049728  0.16212830  0.68789450     0.00100
C3196       C  0.73258510  0.18863414  0.67366085    -0.12100
C3197       C  0.75674921  0.20988705  0.68681673     0.02600
C3198       C  0.76862308  0.20485534  0.71494261    -0.11500
H3199       H  0.72403763  0.13669899  0.72736225     0.08200
H3200       H  0.72471087  0.19219156  0.65155828     0.05700
H3201       H  0.78803640  0.22085796  0.72502758     0.05600
C3202       C  0.88655564  0.17901451  0.98263582     0.02600
C3203       C  0.90921209  0.15737709  0.99704831    -0.13500
C3204       C  0.91788841  0.16154289  0.52629244     0.00100
C3205       C  0.90373922  0.18761530  0.54039757    -0.12100
C3206       C  0.88124503  0.20924564  0.52613405     0.02600
C3207       C  0.87298881  0.20493127  0.99709509    -0.11500
H3208       H  0.91888546  0.13709918  0.98590295     0.08200
H3209       H  0.90910006  0.19074648  0.56297584     0.05700
H3210       H  0.85470716  0.22115446  0.98618633     0.05600
Zr3211     Zr  0.79403269  0.16962671  0.90910317     2.17500
O3212       O  0.73622546  0.17116659  0.93806392    -0.51800
O3213       O  0.83787663  0.17326739  0.94895475    -0.75000
O3214       O  0.77774352  0.12009594  0.92957725    -0.81800
O3215       O  0.78273903  0.25394079  0.89478447    -0.83600
O3216       O  0.79739430  0.08364425  0.89825251    -0.79200
O3217       O  0.77387655  0.21850713  0.92955931    -0.90800
O3218       O  0.89939349  0.17348371  0.93344124    -0.76800
O3219       O  0.84852448  0.13978709  0.89667171    -0.86300
O3220       O  0.84202133  0.20480115  0.89479208    -0.86000
O3221       O  0.77321029  0.13704749  0.87063497    -0.72700
O3222       O  0.76654882  0.19658351  0.86942574    -0.84900
Zr3223     Zr  0.85059903  0.17011925  0.80316097     2.26400
Zr3224     Zr  0.82854505  0.10808098  0.85779998     2.06300
Zr3225     Zr  0.81564122  0.23112182  0.85506150     2.10000
Zr3226     Zr  0.89604802  0.17521531  0.88175207     1.78800
O3227       O  0.76677257  0.26339976  0.83373652    -0.93700
O3228       O  0.94166300  0.13431336  0.89077050    -0.41500
O3229       O  0.87082138  0.20248819  0.84175373    -0.78100
O3230       O  0.87740715  0.14280791  0.84301504    -0.96800
O3231       O  0.80294098  0.13433176  0.81736046    -0.90100
O3232       O  0.79621159  0.19966880  0.81632227    -0.92900
C3233       C  0.87403323  0.17432088  0.95312152     1.00800
C3234       C  0.77150247  0.24581848  0.91961681     1.13700
C3235       C  0.78036327  0.09219273  0.92122008     1.04500
O3236       O  0.87776079  0.07484222  0.87731106    -0.95100
O3237       O  0.86115942  0.08561816  0.81706861    -0.90800
O3238       O  0.87019233  0.12117306  0.78238318    -0.84000
C3239       C  0.87336837  0.09389005  0.79236979     1.11200
O3240       O  0.68921719  0.15098453  0.85394937    -0.97100
Zr3241     Zr  0.74878667  0.16392089  0.83024891     1.88900
O3242       O  0.80736361  0.17327561  0.76253028    -0.73700
O3243       O  0.79013702  0.06559328  0.84024461    -0.53000
O3244       O  0.71980713  0.11691378  0.81268203    -0.97700
O3245       O  0.70074122  0.20332545  0.82266061    -0.54900
O3246       O  0.74628636  0.16900651  0.77859528    -0.74200
C3247       C  0.77102681  0.17281952  0.75873317     0.98100
O3248       O  0.91139072  0.17043671  0.77742972    -0.63100
O3249       O  0.85302358  0.27507127  0.87085204    -0.57900
O3250       O  0.86555887  0.22032934  0.78353465    -0.94500
O3251       O  0.84859329  0.25588904  0.81667144    -0.93000
O3252       O  0.92727264  0.22230486  0.89696635    -0.93300
O3253       O  0.95482303  0.18547055  0.85591006    -0.92100
C3254       C  0.86363799  0.24786763  0.79296706     1.16900
H3255       H  0.84831633  0.21889058  0.90995705     0.32900
H3256       H  0.89974300  0.13163548  0.83690451     0.43700
H3257       H  0.78754818  0.21267262  0.80101971     0.37300
H3258       H  0.75303300  0.12367455  0.87701716     0.33700
H3259       H  0.96151165  0.14378496  0.90294291     0.25500
H3260       H  0.79886254  0.04759396  0.85124447     0.31500
H3261       H  0.69874873  0.12374444  0.80013123     0.37400
H3262       H  0.94917708  0.21556264  0.90871997     0.31800
H3263       H  0.83515977  0.29259725  0.87025034     0.30700
H3264       H  0.77303701  0.28436723  0.84019862     0.32400
H3265       H  0.68295482  0.19436038  0.80852889     0.31400
H3266       H  0.94747387  0.18459920  0.83555099     0.35400
H3267       H  0.92405273  0.19001261  0.78221911     0.28100
H3268       H  0.74350705  0.16284686  0.95692370     0.32300
H3269       H  0.69214994  0.15924001  0.87349058     0.35200
H3270       H  0.85783473  0.27166060  0.89139425     0.27800
H3271       H  0.92749291  0.15502007  0.78712321     0.40700
H3272       H  0.87579371  0.07736875  0.89823600     0.30700
H3273       H  0.92808789  0.12006236  0.90363574     0.38300
H3274       H  0.71418963  0.21966462  0.81208311     0.30200
H3275       H  0.76402516  0.06971336  0.84734324     0.30200
H3276       H  0.71884366  0.15573370  0.92967404     0.30500
C3277       C  0.72195398  0.05279390  0.97894908     0.02600
C3278       C  0.70975658  0.02656876  0.96418026    -0.13500
C3279       C  0.72202479  0.02124833  0.93622140     0.00100
C3280       C  0.74688324  0.04212215  0.92321326    -0.12100
C3281       C  0.75934156  0.06851022  0.93754222     0.02600
C3282       C  0.74704643  0.07354220  0.96573593    -0.11500
H3283       H  0.68987911  0.01085727  0.97413458     0.08200
H3284       H  0.75500405  0.03842616  0.90117568     0.05700
H3285       H  0.75578369  0.09401592  0.97702573     0.05600
C3286       C  0.92863452  0.05373780  0.73269397     0.02600
C3287       C  0.90491207  0.07507458  0.74668467    -0.13500
C3288       C  0.89444452  0.07047200  0.77543155     0.00100
C3289       C  0.90746274  0.04398639  0.78936111    -0.12100
C3290       C  0.93084555  0.02272280  0.77550153     0.02600
C3291       C  0.94128213  0.02757489  0.74718618    -0.11500
H3292       H  0.89578297  0.09547774  0.73553753     0.08200
H3293       H  0.90066649  0.04023430  0.81162884     0.05700
H3294       H  0.96013754  0.01145421  0.73665941     0.05600
Zr3295     Zr  0.96173805  0.06128119  0.55295902     2.17500
O3296       O  0.90339903  0.05714645  0.52479955    -0.51800
O3297       O  0.00476953  0.05805819  0.51216617    -0.75000
O3298       O  0.94076972  0.11052911  0.53345803    -0.81800
O3299       O  0.96209221  0.47566630  0.56648830    -0.83600
O3300       O  0.95223837  0.14652889  0.56738052    -0.79200
O3301       O  0.94312428  0.01157256  0.53415388    -0.90800
O3302       O  0.73283200  0.06174633  0.52763051    -0.76800
O3303       O  0.67699369  0.09653940  0.56650717    -0.86300
O3304       O  0.68260028  0.03117900  0.56546196    -0.86000
O3305       O  0.93565725  0.08929856  0.59281624    -0.72700
O3306       O  0.94166694  0.02938434  0.59186290    -0.84900
Zr3307     Zr  0.68713171  0.06164466  0.65814497     2.26400
Zr3308     Zr  0.98578538  0.12331414  0.60712594     2.06300
Zr3309     Zr  0.99641442  0.00003803  0.60444772     2.10000
Zr3310     Zr  0.73085599  0.06641864  0.57911452     1.78800
O3311       O  0.95827961  0.45752371  0.62198055    -0.93700
O3312       O  0.76063977  0.11342092  0.56223633    -0.41500
O3313       O  0.71324816  0.03395641  0.61834457    -0.78100
O3314       O  0.70743240  0.09387409  0.61947771    -0.96800
O3315       O  0.96625321  0.09208852  0.64621256    -0.90100
O3316       O  0.97148037  0.02708630  0.64420439    -0.92900
C3317       C  0.70775624  0.05829401  0.50800883     1.00800
C3318       C  0.94589370  0.48382841  0.54327289     1.13700
C3319       C  0.93876256  0.13803968  0.54314324     1.04500
O3320       O  0.69224207  0.16491645  0.58971659    -0.95100
O3321       O  0.68427760  0.14660174  0.64786882    -0.90800
O3322       O  0.70181909  0.11052332  0.68021023    -0.84000
C3323       C  0.70009578  0.13826864  0.67137659     1.11200
O3324       O  0.85892204  0.04545537  0.60679938    -0.97100
Zr3325     Zr  0.91774040  0.05731181  0.63196453     1.88900
O3326       O  0.97783041  0.05801942  0.69889066    -0.73700
O3327       O  0.94028122  0.15909813  0.62782015    -0.53000
O3328       O  0.87393234  0.09959247  0.64029822    -0.97700
O3329       O  0.88284640  0.01271883  0.64922867    -0.54900
O3330       O  0.91620617  0.06031161  0.68366759    -0.74200
C3331       C  0.94163221  0.05830618  0.70322701     0.98100
O3332       O  0.74964149  0.06233031  0.68122349    -0.63100
O3333       O  0.71089444  0.46640401  0.58320060    -0.57900
O3334       O  0.70398362  0.01276814  0.67968916    -0.94500
O3335       O  0.69515363  0.47744067  0.64466300    -0.93000
O3336       O  0.77679864  0.02549536  0.57110596    -0.93300
O3337       O  0.79172742  0.07817570  0.60145940    -0.92100
C3338       C  0.70590088  0.48544314  0.66968109     1.16900
H3339       H  0.69081994  0.01805111  0.55007480     0.32900
H3340       H  0.72783024  0.10711478  0.62574677     0.43700
H3341       H  0.96529096  0.01311564  0.65943644     0.37300
H3342       H  0.91333401  0.10060018  0.58692556     0.33700
H3343       H  0.78105730  0.10660536  0.54908739     0.25500
H3344       H  0.94716544  0.17916837  0.61952450     0.31500
H3345       H  0.85501215  0.09144109  0.65400663     0.37400
H3346       H  0.79379551  0.03325721  0.55587937     0.31800
H3347       H  0.73559625  0.47383290  0.59076066     0.30700
H3348       H  0.96952781  0.43906722  0.61307771     0.32400
H3349       H  0.86097620  0.02122047  0.66001533     0.31400
H3350       H  0.78771304  0.07393014  0.62196121     0.35400
H3351       H  0.76387602  0.04509043  0.67258761     0.28100
H3352       H  0.90934734  0.06638487  0.50605424     0.32300
H3353       H  0.86562026  0.04691146  0.58634221     0.35200
H3354       H  0.70696490  0.44641150  0.59263979     0.27800
H3355       H  0.76278344  0.08064763  0.67365230     0.40700
H3356       H  0.71847629  0.15931557  0.59554910     0.30700
H3357       H  0.74142898  0.12308474  0.54967211     0.38300
H3358       H  0.89924684  0.00333694  0.66399254     0.30200
H3359       H  0.91550503  0.15386198  0.61892364     0.30200
H3360       H  0.88492977  0.07128474  0.53384140     0.30500
C3361       C  0.72085647  0.92922866  0.22989987     0.02600
C3362       C  0.74473458  0.90783291  0.21624722    -0.13500
C3363       C  0.75672246  0.91272965  0.18795245     0.00100
C3364       C  0.74565047  0.93963145  0.17410925    -0.12100
C3365       C  0.72164780  0.96085400  0.18731594     0.02600
C3366       C  0.70928323  0.95571397  0.21529008    -0.11500
H3367       H  0.75273542  0.88703884  0.22726559     0.08200
H3368       H  0.75391365  0.94343554  0.15211799     0.05700
H3369       H  0.68988268  0.97174096  0.22535174     0.05600
C3370       C  0.92604648  0.92898565  0.48317651     0.02600
C3371       C  0.93883289  0.95490302  0.49796582    -0.13500
C3372       C  0.92838872  0.95933592  0.02645483     0.00100
C3373       C  0.90497476  0.93798677  0.04003157    -0.12100
C3374       C  0.89187680  0.91175350  0.02569778     0.02600
C3375       C  0.90225717  0.90756346  0.49694792    -0.11500
H3376       H  0.95774367  0.97109983  0.48761967     0.08200
H3377       H  0.89826826  0.94144588  0.06236787     0.05700
H3378       H  0.89294354  0.88733006  0.48556524     0.05600
Zr3379     Zr  0.96035502  0.91981492  0.30332576     2.17500
O3380       O  0.90192589  0.91797287  0.27512049    -0.51800
O3381       O  0.00380154  0.92330082  0.26289650    -0.75000
O3382       O  0.94389450  0.97003562  0.28367950    -0.81800
O3383       O  0.94994953  0.83563060  0.31721858    -0.83600
O3384       O  0.96417318  0.50596080  0.31536476    -0.79200
O3385       O  0.93917973  0.87130682  0.28295430    -0.90800
O3386       O  0.73184753  0.92048898  0.27876925    -0.76800
O3387       O  0.68185056  0.94899619  0.31584664    -0.86300
O3388       O  0.67510924  0.88410070  0.31709352    -0.86000
O3389       O  0.93941319  0.95171484  0.34214706    -0.72700
O3390       O  0.93454309  0.89188625  0.34325432    -0.84900
Zr3391     Zr  0.68501635  0.91956159  0.40898844     2.26400
Zr3392     Zr  0.99509964  0.98048924  0.35459396     2.06300
Zr3393     Zr  0.98385750  0.85748201  0.35758015     2.10000
Zr3394     Zr  0.72941603  0.91332315  0.33001158     1.78800
O3395       O  0.93677003  0.82329363  0.37857454    -0.93700
O3396       O  0.77863588  0.95196549  0.32317434    -0.41500
O3397       O  0.70520605  0.88672528  0.37063132    -0.78100
O3398       O  0.71156149  0.94629999  0.36880005    -0.96800
O3399       O  0.96976879  0.95413279  0.39472821    -0.90100
O3400       O  0.96437430  0.88897330  0.39660570    -0.92900
C3401       C  0.70688357  0.92372696  0.25902869     1.00800
C3402       C  0.93696196  0.84393219  0.29276822     1.13700
C3403       C  0.94773423  0.99781601  0.29226503     1.04500
O3404       O  0.70859583  0.51530838  0.33420234    -0.95100
O3405       O  0.69466094  0.50446236  0.39359110    -0.90800
O3406       O  0.70288009  0.96934662  0.42907357    -0.84000
C3407       C  0.70551282  0.99652792  0.41877158     1.11200
O3408       O  0.85603751  0.93304135  0.35787135    -0.97100
Zr3409     Zr  0.91598485  0.92382259  0.38243457     1.88900
O3410       O  0.97540742  0.92462728  0.44943796    -0.73700
O3411       O  0.95553472  0.52086303  0.37480505    -0.53000
O3412       O  0.88480118  0.97034581  0.39908021    -0.97700
O3413       O  0.87019206  0.88308416  0.39176655    -0.54900
O3414       O  0.91382991  0.92226331  0.43414439    -0.74200
C3415       C  0.93917954  0.92451212  0.45372481     0.98100
O3416       O  0.74640633  0.91960832  0.43373724    -0.63100
O3417       O  0.68934356  0.81465216  0.34114620    -0.57900
O3418       O  0.69953142  0.87022482  0.43059024    -0.94500
O3419       O  0.68465509  0.83441440  0.39719285    -0.93000
O3420       O  0.75639075  0.86605710  0.31117925    -0.93300
O3421       O  0.78853032  0.89858101  0.35341317    -0.92100
C3422       C  0.69923602  0.84260016  0.42119310     1.16900
H3423       H  0.68100095  0.87025344  0.30165319     0.32900
H3424       H  0.73389174  0.95764807  0.37467106     0.43700
H3425       H  0.95619043  0.87649787  0.41245721     0.37300
H3426       H  0.91912694  0.96511152  0.33603879     0.33700
H3427       H  0.79694625  0.94251478  0.30971246     0.25500
H3428       H  0.96350550  0.53974376  0.36481285     0.31500
H3429       H  0.86190959  0.96321602  0.40953037     0.38200
H3430       H  0.77958503  0.87245574  0.30069668     0.31800
H3431       H  0.67367659  0.79624550  0.34488203     0.30700
H3432       H  0.94121568  0.80329810  0.36923255     0.32400
H3433       H  0.85210610  0.89194115  0.40574088     0.31400
H3434       H  0.78493106  0.90466043  0.37356969     0.35400
H3435       H  0.75933653  0.90043651  0.42801995     0.28100
H3436       H  0.90875042  0.92661126  0.25629313     0.32300
H3437       H  0.86073244  0.92602996  0.33810404     0.35200
H3438       H  0.68992472  0.81640552  0.32011630     0.27800
H3439       H  0.76166518  0.93569253  0.42421450     0.40700
H3440       H  0.73304239  0.50967881  0.34338463     0.30700
H3441       H  0.76601559  0.96820352  0.31191966     0.38300
H3442       H  0.88460868  0.86760038  0.40273392     0.30200
H3443       H  0.92946805  0.51666355  0.36765918     0.30200
H3444       H  0.88464836  0.93323584  0.28388216     0.30500
C3445       C  0.75455122  0.80194952  0.48005923     0.02600
C3446       C  0.73074212  0.82334215  0.46638906    -0.13500
C3447       C  0.71916401  0.81861253  0.43795964     0.00100
C3448       C  0.73064751  0.79175124  0.42397600    -0.12100
C3449       C  0.75465426  0.77047424  0.43718984     0.02600
C3450       C  0.76650021  0.77557588  0.46532843    -0.11500
H3451       H  0.72258189  0.84407199  0.47749890     0.08200
H3452       H  0.72267791  0.78801339  0.40191479     0.05700
H3453       H  0.78597205  0.75965426  0.47541788     0.05600
C3454       C  0.88420023  0.80218590  0.23274360     0.02600
C3455       C  0.90694219  0.82416972  0.24681904    -0.13500
C3456       C  0.91653773  0.82024489  0.27582774     0.00100
C3457       C  0.90362636  0.79393900  0.28996848    -0.12100
C3458       C  0.88092893  0.77226474  0.27612570     0.02600
C3459       C  0.87150289  0.77624356  0.24749634    -0.11500
H3460       H  0.91595113  0.84452172  0.23553003     0.08200
H3461       H  0.90990684  0.79067737  0.31239114     0.05700
H3462       H  0.85313541  0.75975444  0.23697320     0.05600
Zr3463     Zr  0.79159827  0.81200155  0.15894201     2.17500
O3464       O  0.73291605  0.81535501  0.18676824    -0.51800
O3465       O  0.83493293  0.80786386  0.19921999    -0.75000
O3466       O  0.77326898  0.76223112  0.17879114    -0.81800
O3467       O  0.79293027  0.89743468  0.14783547    -0.83600
O3468       O  0.78455711  0.72667141  0.14441008    -0.79200
O3469       O  0.77419908  0.86103101  0.17953848    -0.90800
O3470       O  0.89633361  0.80729847  0.18348718    -0.76800
O3471       O  0.84028176  0.77766328  0.14440972    -0.86300
O3472       O  0.84520527  0.84287786  0.14641615    -0.86000
O3473       O  0.76447422  0.78478057  0.11921179    -0.72700
O3474       O  0.77120588  0.84477834  0.12065233    -0.84900
Zr3475     Zr  0.84879821  0.81193924  0.05291177     2.26400
Zr3476     Zr  0.81451821  0.75116858  0.10431666     2.06300
Zr3477     Zr  0.82553254  0.87426205  0.10746446     2.10000
Zr3478     Zr  0.89358557  0.80836037  0.13178882     1.78800
O3479       O  0.78678416  0.91614641  0.08921377    -0.93700
O3480       O  0.92869672  0.76232352  0.14455551    -0.41500
O3481       O  0.87477207  0.84009174  0.09264079    -0.78100
O3482       O  0.86975478  0.78035373  0.09179260    -0.96800
O3483       O  0.79431701  0.78255087  0.06576055    -0.90100
O3484       O  0.80044406  0.84722980  0.06735060    -0.92900
C3485       C  0.87113702  0.80652097  0.20326712     1.00800
C3486       C  0.77654074  0.88887665  0.17106793     1.13700
C3487       C  0.77261267  0.73470678  0.16910668     1.04500
O3488       O  0.85044751  0.70663012  0.12010960    -0.95100
O3489       O  0.84710560  0.72584335  0.06574812    -0.90800
O3490       O  0.86496054  0.76154206  0.03309669    -0.84000
C3491       C  0.86295759  0.73386528  0.04233557     1.11200
O3492       O  0.68946930  0.83231709  0.10692021    -0.97100
Zr3493     Zr  0.74636804  0.81767282  0.08048583     1.88900
O3494       O  0.80497023  0.80813601  0.01272227    -0.73700
O3495       O  0.76432323  0.72084184  0.08221675    -0.53000
O3496       O  0.69931866  0.77725430  0.07417390    -0.97700
O3497       O  0.71254329  0.86222913  0.06194023    -0.54900
O3498       O  0.74384100  0.81059441  0.02908827    -0.74200
C3499       C  0.76859704  0.80751757  0.00912677     0.98100
O3500       O  0.90967567  0.81175008  0.02728543    -0.63100
O3501       O  0.87395852  0.90782435  0.12781624    -0.57900
O3502       O  0.86787723  0.86094320  0.03215743    -0.94500
O3503       O  0.85866507  0.89632367  0.06703464    -0.93000
O3504       O  0.93544832  0.85091650  0.14376703    -0.93300
O3505       O  0.95369174  0.80217947  0.10668552    -0.92100
C3506       C  0.87094972  0.88816492  0.04234726     1.16900
H3507       H  0.85356585  0.85533290  0.16226306     0.32900
H3508       H  0.89024368  0.76714299  0.08567358     0.43700
H3509       H  0.79424125  0.86110588  0.05204364     0.37300
H3510       H  0.74237686  0.77329636  0.12531669     0.33700
H3511       H  0.94851837  0.76931927  0.15812766     0.25500
H3512       H  0.77265062  0.69940392  0.08486540     0.31500
H3513       H  0.68203891  0.78496172  0.05910683     0.37400
H3514       H  0.95350381  0.84245481  0.15794738     0.31800
H3515       H  0.89711676  0.90420326  0.11619108     0.30700
H3516       H  0.79793063  0.93480437  0.09781273     0.32400
H3517       H  0.68856138  0.85395460  0.05382797     0.31400
H3518       H  0.94808248  0.80842244  0.08684871     0.35400
H3519       H  0.92516735  0.82814226  0.03615644     0.28100
H3520       H  0.73915577  0.80658944  0.20565658     0.32300
H3521       H  0.69621871  0.82937666  0.12722642     0.35200
H3522       H  0.86569296  0.92873403  0.12263259     0.27800
H3523       H  0.92303465  0.79285140  0.03319100     0.40700
H3524       H  0.87756330  0.71219347  0.11717692     0.30700
H3525       H  0.91072287  0.75026981  0.15633130     0.38300
H3526       H  0.72729120  0.86901584  0.04510645     0.30200
H3527       H  0.74202740  0.72311335  0.09500631     0.30200
H3528       H  0.71516288  0.80050354  0.17791109     0.30500
C3529       C  0.75693357  0.67861747  0.22961502     0.02600
C3530       C  0.73247807  0.65745418  0.21623010    -0.13500
C3531       C  0.72034451  0.66224867  0.18795663     0.00100
C3532       C  0.73214184  0.68882659  0.17373027    -0.12100
C3533       C  0.75648245  0.71001989  0.18675087     0.02600
C3534       C  0.76870208  0.70497024  0.21479672    -0.11500
H3535       H  0.72423024  0.63682313  0.22742023     0.08200
H3536       H  0.72402314  0.69244296  0.15168457     0.05700
H3537       H  0.78826076  0.72095452  0.22474899     0.05600
C3538       C  0.88663548  0.67905680  0.48277887     0.02600
C3539       C  0.90940330  0.65745393  0.49714096    -0.13500
C3540       C  0.91798139  0.66150162  0.02617917     0.00100
C3541       C  0.90366958  0.68755298  0.04024861    -0.12100
C3542       C  0.88112051  0.70912196  0.02593236     0.02600
C3543       C  0.87329955  0.70507912  0.49722400    -0.11500
H3544       H  0.91898438  0.63714767  0.48599498     0.08200
H3545       H  0.90894596  0.69071083  0.06283324     0.05700
H3546       H  0.85501999  0.72131310  0.48633042     0.05600
Zr3547     Zr  0.79396849  0.66970410  0.40919274     2.17500
O3548       O  0.73577086  0.67151707  0.43770257    -0.51800
O3549       O  0.83776067  0.67341275  0.44913964    -0.75000
O3550       O  0.77745968  0.62022823  0.42966933    -0.81800
O3551       O  0.78216821  0.75393820  0.39458265    -0.83600
O3552       O  0.79704960  0.58378891  0.39830465    -0.79200
O3553       O  0.77408593  0.71870325  0.42963043    -0.90800
O3554       O  0.89927232  0.67315480  0.43359417    -0.76800
O3555       O  0.84846102  0.63977134  0.39684425    -0.86300
O3556       O  0.84205756  0.70479065  0.39488472    -0.86000
O3557       O  0.77325331  0.63711817  0.37066135    -0.72700
O3558       O  0.76650234  0.69660268  0.36947575    -0.84900
Zr3559     Zr  0.85067378  0.67000565  0.30331425     2.26400
Zr3560     Zr  0.82858271  0.60803427  0.35796601     2.06300
Zr3561     Zr  0.81566410  0.73107363  0.35512380     2.10000
Zr3562     Zr  0.89605929  0.67511588  0.38189876     1.78800
O3563       O  0.76689568  0.76307989  0.33337672    -0.93700
O3564       O  0.94213782  0.63450046  0.39076681    -0.41500
O3565       O  0.87082417  0.70238097  0.34190688    -0.78100
O3566       O  0.87750258  0.64266479  0.34315372    -0.96800
O3567       O  0.80295511  0.63428681  0.31752750    -0.90100
O3568       O  0.79633910  0.69961651  0.31640199    -0.92900
C3569       C  0.87394569  0.67427207  0.45328991     1.00800
C3570       C  0.77134166  0.74594365  0.41955800     1.13700
C3571       C  0.78001098  0.59233660  0.42126034     1.04500
O3572       O  0.87797907  0.57536493  0.37810805    -0.95100
O3573       O  0.86082921  0.58549326  0.31707117    -0.90800
O3574       O  0.86980382  0.62105270  0.28237629    -0.84000
C3575       C  0.87295507  0.59376057  0.29234052     1.11200
O3576       O  0.68915671  0.65085475  0.35377343    -0.97100
Zr3577     Zr  0.74880593  0.66396756  0.33024874     1.88900
O3578       O  0.80763113  0.67354272  0.26253436    -0.73700
O3579       O  0.79115015  0.56489725  0.34059611    -0.53000
O3580       O  0.71957521  0.61704288  0.31272022    -0.97700
O3581       O  0.70124924  0.70371170  0.32232924    -0.54900
O3582       O  0.74654849  0.66910437  0.27855918    -0.74200
C3583       C  0.77128502  0.67302688  0.25870369     0.98100
O3584       O  0.91205688  0.67034657  0.27844889    -0.63100
O3585       O  0.85236068  0.77531998  0.37104498    -0.57900
O3586       O  0.86589554  0.72007040  0.28355452    -0.94500
O3587       O  0.84897185  0.75563155  0.31671396    -0.93000
O3588       O  0.92703266  0.72238616  0.39687094    -0.93300
O3589       O  0.95515782  0.68539413  0.35646567    -0.92100
C3590       C  0.86400588  0.74760790  0.29298928     1.16900
H3591       H  0.84835544  0.71889658  0.41003586     0.32900
H3592       H  0.89981555  0.63145859  0.33704523     0.43700
H3593       H  0.78775444  0.71263759  0.30108977     0.37300
H3594       H  0.75303547  0.62377032  0.37701441     0.33700
H3595       H  0.96253054  0.64433243  0.40216556     0.25500
H3596       H  0.79883652  0.54736571  0.35263515     0.31500
H3597       H  0.69856701  0.62392853  0.30014871     0.37400
H3598       H  0.94862720  0.71579105  0.40901010     0.31800
H3599       H  0.83431621  0.79271747  0.37024083     0.30700
H3600       H  0.77456880  0.78427560  0.33810237     0.32400
H3601       H  0.68195157  0.69403541  0.30980234     0.31400
H3602       H  0.94722811  0.68927934  0.33654850     0.35400
H3603       H  0.92490174  0.68958853  0.28408044     0.28100
H3604       H  0.74286260  0.66348423  0.45670903     0.32300
H3605       H  0.69207220  0.65890498  0.37338881     0.35200
H3606       H  0.85690189  0.77201553  0.39163687     0.27800
H3607       H  0.92758865  0.65438654  0.28789453     0.40700
H3608       H  0.87521148  0.57755870  0.39901674     0.30700
H3609       H  0.92920530  0.62063249  0.40434502     0.38300
H3610       H  0.71410590  0.71885876  0.30994805     0.30200
H3611       H  0.76459644  0.56948061  0.34641529     0.30200
H3612       H  0.71856363  0.65591158  0.42938986     0.30500
C3613       C  0.72161376  0.55274963  0.47885201     0.02600
C3614       C  0.70962512  0.52648368  0.46406329    -0.13500
C3615       C  0.72197204  0.52125335  0.43611170     0.00100
C3616       C  0.74675763  0.54219768  0.42315336    -0.12100
C3617       C  0.75896612  0.56863834  0.43750339     0.02600
C3618       C  0.74652764  0.57363583  0.46565655    -0.11500
H3619       H  0.68983838  0.51067816  0.47398815     0.08200
H3620       H  0.75498713  0.53851679  0.40113511     0.05700
H3621       H  0.75508003  0.59415359  0.47695411     0.05600
C3622       C  0.92897663  0.55408689  0.23278203     0.02600
C3623       C  0.90486179  0.57520224  0.24670171    -0.13500
C3624       C  0.89406760  0.57038562  0.27536012     0.00100
C3625       C  0.90704366  0.54384337  0.28922692    -0.12100
C3626       C  0.93084365  0.52280760  0.27544451     0.02600
C3627       C  0.94170691  0.52794158  0.24726339    -0.11500
H3628       H  0.89569923  0.59561519  0.23558480     0.08200
H3629       H  0.89996308  0.53991123  0.31141769     0.05700
H3630       H  0.96086425  0.51199747  0.23680942     0.05600
Zr3631     Zr  0.96194087  0.56124586  0.05283934     2.17500
O3632       O  0.90343206  0.55726988  0.02484712    -0.51800
O3633       O  0.00508385  0.55791932  0.01210259    -0.75000
O3634       O  0.94105173  0.61052790  0.03332341    -0.81800
O3635       O  0.96133414  0.97583003  0.06671317    -0.83600
O3636       O  0.95214687  0.64649197  0.06735301    -0.79200
O3637       O  0.94349632  0.51136416  0.03409545    -0.90800
O3638       O  0.73311253  0.56175330  0.02772960    -0.76800
O3639       O  0.67706326  0.59662076  0.06653115    -0.86300
O3640       O  0.68276901  0.53119511  0.06543978    -0.86000
O3641       O  0.93574935  0.58919168  0.09270584    -0.72700
O3642       O  0.94182852  0.52952645  0.09184500    -0.84900
Zr3643     Zr  0.68727878  0.56172573  0.15815939     2.26400
Zr3644     Zr  0.98567409  0.62331437  0.10712098     2.06300
Zr3645     Zr  0.99649047  0.50012163  0.10442071     2.10000
Zr3646     Zr  0.73093397  0.56651193  0.07916194     1.78800
O3647       O  0.95926641  0.95707881  0.12180758    -0.93700
O3648       O  0.76136074  0.61300009  0.06166179    -0.41500
O3649       O  0.71331222  0.53403865  0.11835915    -0.78100
O3650       O  0.70743106  0.59404881  0.11945131    -0.96800
O3651       O  0.96644597  0.59212946  0.14625499    -0.90100
O3652       O  0.97172041  0.52719600  0.14424317    -0.92900
C3653       C  0.70809387  0.55834381  0.00807167     1.00800
C3654       C  0.94548586  0.98396210  0.04334569     1.13700
C3655       C  0.93884905  0.63801418  0.04305976     1.04500
O3656       O  0.69023154  0.66612137  0.08990826    -0.95100
O3657       O  0.68447630  0.64656942  0.14777764    -0.90800
O3658       O  0.70174262  0.61059961  0.18031604    -0.84000
C3659       C  0.70008867  0.63831838  0.17140185     1.11200
O3660       O  0.85874966  0.54553685  0.10738749    -0.97100
Zr3661     Zr  0.91796104  0.55739327  0.13201811     1.88900
O3662       O  0.97823608  0.55830697  0.19898468    -0.73700
O3663       O  0.93896239  0.65757841  0.12850635    -0.53000
O3664       O  0.87459915  0.59995128  0.14045427    -0.97700
O3665       O  0.88320243  0.51262263  0.14898488    -0.54900
O3666       O  0.91661680  0.56067335  0.18373979    -0.74200
C3667       C  0.94203373  0.55868971  0.20331824     0.98100
O3668       O  0.74995177  0.56208257  0.18096699    -0.63100
O3669       O  0.71069012  0.96706733  0.08235969    -0.57900
O3670       O  0.70423234  0.51274968  0.17959529    -0.94500
O3671       O  0.69460177  0.97745391  0.14479146    -0.93000
O3672       O  0.77642138  0.52516481  0.07173912    -0.93300
O3673       O  0.79172369  0.57847934  0.10153905    -0.92100
C3674       C  0.70578639  0.98548371  0.16970269     1.16900
H3675       H  0.69102815  0.51806221  0.05006724     0.32900
H3676       H  0.72780474  0.60733515  0.12568070     0.43700
H3677       H  0.96557486  0.51325056  0.15950337     0.37300
H3678       H  0.91339246  0.60043579  0.08679196     0.33700
H3679       H  0.78341625  0.60583529  0.05026395     0.25500
H3680       H  0.94646635  0.67819581  0.12183386     0.31500
H3681       H  0.85338674  0.59102850  0.15164167     0.37400
H3682       H  0.79460913  0.53316231  0.05741380     0.31800
H3683       H  0.73499763  0.97257834  0.09181445     0.30700
H3684       H  0.97227901  0.93872438  0.11415713     0.32400
H3685       H  0.86184000  0.52099924  0.16040382     0.31400
H3686       H  0.78763823  0.57439492  0.12205915     0.35400
H3687       H  0.76427190  0.54525476  0.17171949     0.28100
H3688       H  0.90929966  0.56650933  0.00608833     0.32300
H3689       H  0.86527611  0.54656159  0.08687638     0.35200
H3690       H  0.70472815  0.94634125  0.08956488     0.27800
H3691       H  0.76282424  0.58075507  0.17391197     0.40700
H3692       H  0.71676519  0.65836724  0.08982077     0.30700
H3693       H  0.74342008  0.62143094  0.04738988     0.38300
H3694       H  0.90002772  0.50275757  0.16319344     0.30200
H3695       H  0.91478940  0.65317916  0.11837909     0.30200
H3696       H  0.88506782  0.57144514  0.03396088     0.30500
C3697       C  0.72083859  0.92932702  0.72993828     0.02600
C3698       C  0.74460784  0.90786836  0.71630300    -0.13500
C3699       C  0.75650623  0.91268017  0.68799581     0.00100
C3700       C  0.74550080  0.93958816  0.67412892    -0.12100
C3701       C  0.72154742  0.96085271  0.68732037     0.02600
C3702       C  0.70924538  0.95578836  0.71531195    -0.11500
H3703       H  0.75257452  0.88708290  0.72734862     0.08200
H3704       H  0.75376915  0.94336765  0.65213598     0.05700
H3705       H  0.68987360  0.97184167  0.72537018     0.05600
C3706       C  0.92607805  0.92896366  0.98320218     0.02600
C3707       C  0.93886489  0.95483936  0.99808234    -0.13500
C3708       C  0.92858124  0.95935867  0.52637153     0.00100
C3709       C  0.90533161  0.93800072  0.54007544    -0.12100
C3710       C  0.89208126  0.91180021  0.52580340     0.02600
C3711       C  0.90219303  0.90754945  0.99687704    -0.11500
H3712       H  0.95789653  0.97100163  0.98781712     0.08200
H3713       H  0.89882533  0.94145584  0.56244608     0.05700
H3714       H  0.89292388  0.88733004  0.98545082     0.05600
Zr3715     Zr  0.96041301  0.91988430  0.80325121     2.17500
O3716       O  0.90246788  0.91793835  0.77447074    -0.51800
O3717       O  0.00399195  0.92359579  0.76295455    -0.75000
O3718       O  0.94371741  0.97005044  0.78365742    -0.81800
O3719       O  0.95056480  0.83557666  0.81688399    -0.83600
O3720       O  0.96451540  0.50588098  0.81533847    -0.79200
O3721       O  0.93907985  0.87140890  0.78289739    -0.90800
O3722       O  0.73186233  0.92045788  0.77875232    -0.76800
O3723       O  0.68184989  0.94897865  0.81578293    -0.86300
O3724       O  0.67507724  0.88413756  0.81699063    -0.86000
O3725       O  0.93947812  0.95174282  0.84212623    -0.72700
O3726       O  0.93449066  0.89197493  0.84314349    -0.84900
Zr3727     Zr  0.68503753  0.91952043  0.90896590     2.26400
Zr3728     Zr  0.99524596  0.98043985  0.85456924     2.06300
Zr3729     Zr  0.98378631  0.85753523  0.85749881     2.10000
Zr3730     Zr  0.72939591  0.91332873  0.82998687     1.78800
O3731       O  0.93547462  0.82440055  0.87835208    -0.93700
O3732       O  0.77837046  0.95210912  0.82274635    -0.41500
O3733       O  0.70507799  0.88673988  0.87054173    -0.78100
O3734       O  0.71162469  0.94629763  0.86880161    -0.96800
O3735       O  0.96991779  0.95404773  0.89470046    -0.90100
O3736       O  0.96443490  0.88896439  0.89659874    -0.92900
C3737       C  0.70689649  0.92382711  0.75903745     1.00800
C3738       C  0.93726003  0.84395266  0.79255811     1.13700
C3739       C  0.94769527  0.99781219  0.79223661     1.04500
O3740       O  0.70879950  0.51492414  0.83383357    -0.95100
O3741       O  0.69449908  0.50434900  0.89396215    -0.90800
O3742       O  0.70291289  0.96937153  0.92902818    -0.84000
C3743       C  0.70538612  0.99659199  0.91877126     1.11200
O3744       O  0.85584430  0.93355682  0.85836555    -0.97100
Zr3745     Zr  0.91605655  0.92382885  0.88243419     1.88900
O3746       O  0.97547577  0.92470391  0.94945579    -0.73700
O3747       O  0.95635844  0.52148478  0.87447019    -0.53000
O3748       O  0.88505069  0.97034765  0.89929733    -0.97700
O3749       O  0.87088301  0.88261252  0.89166915    -0.54900
O3750       O  0.91391219  0.92215128  0.93415764    -0.74200
C3751       C  0.93924770  0.92450924  0.95374324     0.98100
O3752       O  0.74625837  0.91869046  0.93393063    -0.63100
O3753       O  0.68758861  0.81364520  0.84154604    -0.57900
O3754       O  0.69938002  0.87001678  0.93041571    -0.94500
O3755       O  0.68480520  0.83425821  0.89688961    -0.93000
O3756       O  0.75608037  0.86555563  0.81206516    -0.93300
O3757       O  0.78862994  0.89895315  0.85340510    -0.92100
C3758       C  0.69923934  0.84240289  0.92096352     1.16900
H3759       H  0.68098383  0.87028701  0.80155510     0.32900
H3760       H  0.73395057  0.95765045  0.87467703     0.43700
H3761       H  0.95625424  0.87646630  0.91243417     0.37300
H3762       H  0.91921684  0.96517988  0.83604975     0.33700
H3763       H  0.79619984  0.94293148  0.80876967     0.25500
H3764       H  0.96491268  0.54019833  0.86447051     0.31500
H3765       H  0.86248937  0.96322075  0.91014187     0.38200
H3766       H  0.77761529  0.87179213  0.79969960     0.31800
H3767       H  0.67011976  0.79594765  0.84330590     0.30700
H3768       H  0.94703469  0.80374982  0.87811193     0.32400
H3769       H  0.85181859  0.89163090  0.90480059     0.31400
H3770       H  0.78456021  0.90424535  0.87370421     0.35400
H3771       H  0.75954769  0.90009141  0.92711775     0.28100
H3772       H  0.90954517  0.92666830  0.75573071     0.32300
H3773       H  0.86077845  0.92819624  0.83818802     0.35200
H3774       H  0.69084124  0.81648000  0.82075632     0.27800
H3775       H  0.76130199  0.93556379  0.92546790     0.40700
H3776       H  0.73310667  0.50984698  0.84348589     0.30700
H3777       H  0.76534245  0.96856821  0.81203743     0.38300
H3778       H  0.88508089  0.86780537  0.90356920     0.30200
H3779       H  0.93028937  0.51765238  0.86715210     0.30200
H3780       H  0.88491660  0.93308031  0.78311056     0.30500
C3781       C  0.75439463  0.80180781  0.98004034     0.02600
C3782       C  0.73047248  0.82310859  0.96631689    -0.13500
C3783       C  0.71916255  0.81841366  0.93780329     0.00100
C3784       C  0.73095980  0.79162251  0.92384339    -0.12100
C3785       C  0.75494537  0.77038873  0.93717375     0.02600
C3786       C  0.76653148  0.77547889  0.96535495    -0.11500
H3787       H  0.72210436  0.84378318  0.97742684     0.08200
H3788       H  0.72323398  0.78790763  0.90173077     0.05700
H3789       H  0.78601962  0.75960961  0.97550263     0.05600
C3790       C  0.88426525  0.80231590  0.73264107     0.02600
C3791       C  0.90727526  0.82416870  0.74663462    -0.13500
C3792       C  0.91681168  0.82026479  0.77564408     0.00100
C3793       C  0.90367303  0.79405246  0.78983749    -0.12100
C3794       C  0.88088392  0.77241440  0.77600435     0.02600
C3795       C  0.87144635  0.77642346  0.74739488    -0.11500
H3796       H  0.91646190  0.84444493  0.73530455     0.08200
H3797       H  0.90987113  0.79084201  0.81227936     0.05700
H3798       H  0.85296829  0.76000049  0.73688803     0.05600
Zr3799     Zr  0.79151482  0.81202769  0.65897870     2.17500
O3800       O  0.73212323  0.81496379  0.68602566    -0.51800
O3801       O  0.83487768  0.80772943  0.69920643    -0.75000
O3802       O  0.77360323  0.76223756  0.67904276    -0.81800
O3803       O  0.79230486  0.89726974  0.64777403    -0.83600
O3804       O  0.78469207  0.72681866  0.64449852    -0.79200
O3805       O  0.77434727  0.86098593  0.67984819    -0.90800
O3806       O  0.89629525  0.80784591  0.68346985    -0.76800
O3807       O  0.84027985  0.77773826  0.64438140    -0.86300
O3808       O  0.84510746  0.84300049  0.64653341    -0.86000
O3809       O  0.76449301  0.78494081  0.61916447    -0.72700
O3810       O  0.77112167  0.84490261  0.62072813    -0.84900
Zr3811     Zr  0.84881180  0.81212999  0.55301303     2.26400
Zr3812     Zr  0.81447173  0.75130401  0.60425638     2.06300
Zr3813     Zr  0.82550756  0.87438402  0.60756382     2.10000
Zr3814     Zr  0.89355283  0.80856333  0.63182087     1.78800
O3815       O  0.78760189  0.91665988  0.58909064    -0.93700
O3816       O  0.92983451  0.76309668  0.64454935    -0.41500
O3817       O  0.87478684  0.84029296  0.59270634    -0.78100
O3818       O  0.86970878  0.78053855  0.59188268    -0.96800
O3819       O  0.79426715  0.78275539  0.56574371    -0.90100
O3820       O  0.80048586  0.84740187  0.56744417    -0.92900
C3821       C  0.87110801  0.80671116  0.70322879     1.00800
C3822       C  0.77627597  0.88878096  0.67116201     1.13700
C3823       C  0.77287515  0.73474297  0.66926919     1.04500
O3824       O  0.84982348  0.70626059  0.61945628    -0.95100
O3825       O  0.84758139  0.72607740  0.56582528    -0.90800
O3826       O  0.86553616  0.76182311  0.53325450    -0.84000
C3827       C  0.86355254  0.73413080  0.54245830     1.11200
O3828       O  0.68900809  0.83181829  0.60673166    -0.97100
Zr3829     Zr  0.74633496  0.81789932  0.58048148     1.88900
O3830       O  0.80502094  0.80823876  0.51282569    -0.73700
O3831       O  0.76419258  0.72137383  0.58179382    -0.53000
O3832       O  0.69919909  0.77750519  0.57437036    -0.97700
O3833       O  0.71369144  0.86303759  0.56187300    -0.54900
O3834       O  0.74383928  0.81069240  0.52909657    -0.74200
C3835       C  0.76866389  0.80760256  0.50917559     0.98100
O3836       O  0.90959518  0.81234089  0.52729106    -0.63100
O3837       O  0.87415449  0.90761741  0.62802459    -0.57900
O3838       O  0.86764903  0.86115492  0.53224645    -0.94500
O3839       O  0.85904629  0.89643561  0.56728821    -0.93000
O3840       O  0.93544112  0.85134415  0.64299131    -0.93300
O3841       O  0.95365521  0.80161803  0.60690306    -0.92100
C3842       C  0.87108217  0.88830233  0.54251750     1.16900
H3843       H  0.85342667  0.85545291  0.66239499     0.32900
H3844       H  0.89025680  0.76736954  0.58580294     0.43700
H3845       H  0.79442690  0.86130439  0.55213031     0.37300
H3846       H  0.74240585  0.77344387  0.62526819     0.33700
H3847       H  0.94984935  0.77047233  0.65778862     0.25500
H3848       H  0.77149840  0.69987072  0.58545390     0.31500
H3849       H  0.68206267  0.78503898  0.55913999     0.37400
H3850       H  0.95539326  0.84251812  0.65545731     0.31800
H3851       H  0.89801955  0.90187952  0.61805651     0.30700
H3852       H  0.79723803  0.93497603  0.59921421     0.32400
H3853       H  0.68974545  0.85510616  0.55341905     0.31400
H3854       H  0.94922058  0.81047411  0.58778069     0.35400
H3855       H  0.92491146  0.82893472  0.53600460     0.28100
H3856       H  0.73822472  0.80683616  0.70518521     0.32300
H3857       H  0.69468987  0.82653642  0.62680599     0.35200
H3858       H  0.86803108  0.92825993  0.62070133     0.27800
H3859       H  0.92322656  0.79362152  0.53333783     0.40700
H3860       H  0.87696238  0.71254811  0.61877476     0.30700
H3861       H  0.91237327  0.75096299  0.65667296     0.38300
H3862       H  0.72885610  0.86985972  0.54525923     0.30200
H3863       H  0.74138557  0.72474666  0.59384606     0.30200
H3864       H  0.71500263  0.79953235  0.67733318     0.30500
C3865       C  0.75685672  0.67860242  0.72973439     0.02600
C3866       C  0.73249202  0.65742148  0.71631638    -0.13500
C3867       C  0.72049892  0.66219351  0.68802519     0.00100
C3868       C  0.73254237  0.68868638  0.67375290    -0.12100
C3869       C  0.75673456  0.70996503  0.68685279     0.02600
C3870       C  0.76865250  0.70498875  0.71497901    -0.11500
H3871       H  0.72418076  0.63680262  0.72750390     0.08200
H3872       H  0.72461847  0.69220163  0.65165622     0.05700
H3873       H  0.78806742  0.72101660  0.72502983     0.05600
C3874       C  0.88679512  0.67908096  0.98261474     0.02600
C3875       C  0.90947734  0.65746202  0.99702965    -0.13500
C3876       C  0.91833804  0.66163784  0.52620204     0.00100
C3877       C  0.90435608  0.68782967  0.54024996    -0.12100
C3878       C  0.88169835  0.70938768  0.52600302     0.02600
C3879       C  0.87311853  0.70496158  0.99708591    -0.11500
H3880       H  0.91930373  0.63725024  0.98585464     0.08200
H3881       H  0.90989546  0.69107159  0.56278892     0.05700
H3882       H  0.85489237  0.72119832  0.98614436     0.05600
Zr3883     Zr  0.79419473  0.66965425  0.90911348     2.17500
O3884       O  0.73607716  0.67123895  0.93771823    -0.51800
O3885       O  0.83807578  0.67326211  0.94896468    -0.75000
O3886       O  0.77783173  0.62010445  0.92958207    -0.81800
O3887       O  0.78292027  0.75394491  0.89474411    -0.83600
O3888       O  0.79737793  0.58361580  0.89823814    -0.79200
O3889       O  0.77437521  0.71861447  0.92965395    -0.90800
O3890       O  0.89957505  0.67346101  0.93341072    -0.76800
O3891       O  0.84858492  0.63969079  0.89665381    -0.86300
O3892       O  0.84222885  0.70476386  0.89470978    -0.86000
O3893       O  0.77332098  0.63707941  0.87067024    -0.72700
O3894       O  0.76664250  0.69658931  0.86943419    -0.84900
Zr3895     Zr  0.85073007  0.67006792  0.80316443     2.26400
Zr3896     Zr  0.82854796  0.60799790  0.85777102     2.06300
Zr3897     Zr  0.81577764  0.73110295  0.85499394     2.10000
Zr3898     Zr  0.89618204  0.67503950  0.88171868     1.78800
O3899       O  0.76698808  0.76335551  0.83350215    -0.93700
O3900       O  0.94154634  0.63394187  0.89072073    -0.41500
O3901       O  0.87092404  0.70239136  0.84177417    -0.78100
O3902       O  0.87751009  0.64265449  0.84296887    -0.96800
O3903       O  0.80303098  0.63430254  0.81732828    -0.90100
O3904       O  0.79634041  0.69961229  0.81631532    -0.92900
C3905       C  0.87424160  0.67433878  0.95310750     1.00800
C3906       C  0.77184663  0.74589427  0.91963744     1.13700
C3907       C  0.78039488  0.59219026  0.92121951     1.04500
O3908       O  0.87756279  0.57455919  0.87729732    -0.95100
O3909       O  0.86108089  0.58541941  0.81705799    -0.90800
O3910       O  0.87009106  0.62102254  0.78240238    -0.84000
C3911       C  0.87325649  0.59371740  0.79235533     1.11200
O3912       O  0.68893913  0.65062440  0.85324942    -0.97100
Zr3913     Zr  0.74890225  0.66388624  0.83025599     1.88900
O3914       O  0.80755266  0.67347405  0.76253437    -0.73700
O3915       O  0.78976024  0.56584668  0.83994964    -0.53000
O3916       O  0.72003137  0.61666637  0.81308277    -0.97700
O3917       O  0.70110990  0.70340690  0.82231763    -0.54900
O3918       O  0.74651463  0.66898596  0.77862306    -0.74200
C3919       C  0.77121393  0.67294609  0.75876414     0.98100
O3920       O  0.91171172  0.67100632  0.77774463    -0.63100
O3921       O  0.85305524  0.77525572  0.87040658    -0.57900
O3922       O  0.86578599  0.72020876  0.78340452    -0.94500
O3923       O  0.84885379  0.75576789  0.81654988    -0.93000
O3924       O  0.92789188  0.72195287  0.89681073    -0.93300
O3925       O  0.95510752  0.68531980  0.85608810    -0.92100
C3926       C  0.86390124  0.74775206  0.79283717     1.16900
H3927       H  0.84858895  0.71886893  0.90984714     0.32900
H3928       H  0.89981969  0.63145792  0.83684102     0.43700
H3929       H  0.78768011  0.71262856  0.80102227     0.37300
H3930       H  0.75310554  0.62375167  0.87706887     0.33700
H3931       H  0.96181690  0.64347734  0.90245392     0.25500
H3932       H  0.79827501  0.54772849  0.85087018     0.31500
H3933       H  0.69984161  0.62331217  0.79967944     0.37400
H3934       H  0.94958008  0.71510557  0.90873486     0.31800
H3935       H  0.83505560  0.79269692  0.86991990     0.30700
H3936       H  0.77207540  0.78410367  0.84106815     0.32400
H3937       H  0.68252974  0.69396453  0.80905115     0.31400
H3938       H  0.94760716  0.68564825  0.83575122     0.35400
H3939       H  0.92478987  0.68999213  0.78382253     0.28100
H3940       H  0.74314471  0.66292333  0.95662380     0.32300
H3941       H  0.69129302  0.65907353  0.87276015     0.35200
H3942       H  0.85817804  0.77189198  0.89091283     0.27800
H3943       H  0.92732877  0.65467493  0.78653133     0.40700
H3944       H  0.87648009  0.57788489  0.89816230     0.30700
H3945       H  0.92815356  0.62003390  0.90401083     0.38300
H3946       H  0.71427684  0.71906778  0.81069880     0.30200
H3947       H  0.76367273  0.57008956  0.84703403     0.30200
H3948       H  0.71879514  0.65579962  0.92922245     0.30500
C3949       C  0.72212289  0.55277309  0.97900582     0.02600
C3950       C  0.70998518  0.52650471  0.96428692    -0.13500
C3951       C  0.72222716  0.52117617  0.93633148     0.00100
C3952       C  0.74699155  0.54208387  0.92327568    -0.12100
C3953       C  0.75940765  0.56850914  0.93756854     0.02600
C3954       C  0.74715219  0.57354636  0.96576666    -0.11500
H3955       H  0.69014683  0.51077967  0.97426812     0.08200
H3956       H  0.75506673  0.53837970  0.90122983     0.05700
H3957       H  0.75585505  0.59404344  0.97703438     0.05600
C3958       C  0.92912470  0.55393476  0.73277899     0.02600
C3959       C  0.90511270  0.57510881  0.74671265    -0.13500
C3960       C  0.89437785  0.57033910  0.77538509     0.00100
C3961       C  0.90731477  0.54378781  0.78925263    -0.12100
C3962       C  0.93108643  0.52274121  0.77547313     0.02600
C3963       C  0.94189549  0.52781605  0.74727461    -0.11500
H3964       H  0.89596307  0.59551891  0.73558658     0.08200
H3965       H  0.90022932  0.53985590  0.81144243     0.05700
H3966       H  0.96102613  0.51185082  0.73681831     0.05600
Zr3967     Zr  0.96194673  0.56124539  0.55290587     2.17500
O3968       O  0.90378166  0.55715670  0.52453124    -0.51800
O3969       O  0.00504750  0.55782848  0.51218178    -0.75000
O3970       O  0.94097612  0.61054857  0.53346073    -0.81800
O3971       O  0.96206426  0.97573294  0.56633849    -0.83600
O3972       O  0.95286107  0.64663956  0.56722300    -0.79200
O3973       O  0.94337641  0.51144494  0.53417503    -0.90800
O3974       O  0.73275642  0.56159174  0.52758470    -0.76800
O3975       O  0.67679637  0.59661112  0.56655077    -0.86300
O3976       O  0.68270259  0.53122837  0.56549979    -0.86000
O3977       O  0.93587988  0.58924372  0.59276262    -0.72700
O3978       O  0.94186463  0.52941091  0.59185906    -0.84900
Zr3979     Zr  0.68716395  0.56168468  0.65818369     2.26400
Zr3980     Zr  0.98590513  0.62329973  0.60713361     2.06300
Zr3981     Zr  0.99658007  0.50009151  0.60447623     2.10000
Zr3982     Zr  0.73080813  0.56666079  0.57902026     1.78800
O3983       O  0.95850934  0.95731141  0.62210791    -0.93700
O3984       O  0.75949567  0.61383244  0.56138681    -0.41500
O3985       O  0.71333538  0.53415353  0.61828824    -0.78100
O3986       O  0.70745552  0.59400583  0.61951528    -0.96800
O3987       O  0.96649305  0.59210770  0.64624619    -0.90100
O3988       O  0.97173996  0.52715918  0.64425515    -0.92900
C3989       C  0.70767146  0.55820982  0.50797123     1.00800
C3990       C  0.94574783  0.98394621  0.54318709     1.13700
C3991       C  0.93919917  0.63811319  0.54305836     1.04500
O3992       O  0.69242810  0.66469826  0.58956143    -0.95100
O3993       O  0.68385289  0.64665377  0.64819073    -0.90800
O3994       O  0.70226642  0.61051104  0.68019088    -0.84000
C3995       C  0.70009766  0.63829651  0.67153396     1.11200
O3996       O  0.85931633  0.54517154  0.60672836    -0.97100
Zr3997     Zr  0.91798855  0.55734557  0.63197354     1.88900
O3998       O  0.97833236  0.55835321  0.69901288    -0.73700
O3999       O  0.93902789  0.65789291  0.62784755    -0.53000
O4000       O  0.87443547  0.59988466  0.63983436    -0.97700
O4001       O  0.88236878  0.51316509  0.64932282    -0.54900
O4002       O  0.91670435  0.56030767  0.68372565    -0.74200
C4003       C  0.94213101  0.55851590  0.70331639     0.98100
O4004       O  0.74945974  0.56215528  0.68160002    -0.63100
O4005       O  0.71032196  0.96621709  0.58291539    -0.57900
O4006       O  0.70403637  0.51275160  0.67967147    -0.94500
O4007       O  0.69482656  0.97746120  0.64469835    -0.93000
O4008       O  0.77710323  0.52622140  0.57008951    -0.93300
O4009       O  0.79143801  0.57822697  0.60181879    -0.92100
C4010       C  0.70568454  0.98545377  0.66969736     1.16900
H4011       H  0.69093752  0.51809618  0.55012033     0.32900
H4012       H  0.72782602  0.60727448  0.62578710     0.43700
H4013       H  0.96551317  0.51320737  0.65949574     0.37300
H4014       H  0.91357129  0.60054732  0.58684671     0.33700
H4015       H  0.77800540  0.60721730  0.54666761     0.25500
H4016       H  0.94652712  0.67839960  0.62088364     0.31500
H4017       H  0.85578078  0.59211691  0.65393133     0.37400
H4018       H  0.79472064  0.53482407  0.55566817     0.31800
H4019       H  0.73504519  0.97312004  0.59085656     0.30700
H4020       H  0.96884018  0.93902943  0.61231267     0.32400
H4021       H  0.86114117  0.52190181  0.66065105     0.31400
H4022       H  0.78783370  0.57211698  0.62195259     0.35400
H4023       H  0.76370317  0.54486551  0.67306157     0.28100
H4024       H  0.90983724  0.56645172  0.50582901     0.32300
H4025       H  0.86603802  0.54669976  0.58627912     0.35200
H4026       H  0.70579231  0.94606882  0.59190595     0.27800
H4027       H  0.76280072  0.58041161  0.67409586     0.40700
H4028       H  0.71770636  0.66116381  0.59838918     0.30700
H4029       H  0.73909035  0.62427031  0.55052600     0.38300
H4030       H  0.89902538  0.50324956  0.66361600     0.30200
H4031       H  0.91490762  0.65328820  0.61772635     0.30200
H4032       H  0.88523768  0.57125500  0.53354191     0.30500
loop_ 
_geom_bond_atom_site_label_1 
_geom_bond_atom_site_label_2 
_geom_bond_distance 
_geom_bond_site_symmetry_2 
_ccdc_geom_bond_type 
C1            C2   1.409       .  A
C1            C6   1.406       .  A
C1           C41   1.471       .  S
C2            C3   1.409       .  A
C2            H7   1.084       .  S
C3            C4   1.400       .  A
C3          C126   1.482       .  S
C4            C5   1.397       .  A
C4            H8   1.085       .  S
C5            C6   1.400       .  A
C5          C314   1.468       .  S
C6            H9   1.084       .  S
C10          C11   1.402       .  A
C10          C15   1.410       .  A
C10          C55   1.468       .  S
C11         C348   1.394       .  A
C11          H16   1.085       .  S
C12          C13   1.397       .  A
C12         C347   1.394   1_554  A
C12         C294   1.465       .  S
C13          C14   1.406       .  A
C13          H17   1.084       .  S
C14         C351   1.411   1_554  A
C14         C146   1.488       .  S
C15         C350   1.411       .  A
C15          H18   1.083       .  S
Zr19         O20   2.439       .  S
Zr19         O21   2.437       .  S
Zr19         O22   2.453       .  S
Zr19         O25   2.443       .  S
Zr19         O29   2.408       .  S
Zr19         O30   2.413       .  S
Zr19       O1371   2.377       .  S
Zr19       O1372   2.386       .  S
O20          H76   0.990       .  S
O20          H84   0.990       .  S
O21        C1385   1.285       .  A
O22          C43   1.287       .  A
O23         Zr33   2.429       .  S
O23          C42   1.287       .  A
O24        Zr704   2.408   1_545  S
O24         C715   1.280   1_545  A
O25          C42   1.286       .  A
O26         Zr34   2.425       .  S
O26          C41   1.282       .  A
O27         Zr34   2.379       .  S
O27       Zr2707   2.378   1_455  S
O27       Zr2720   2.386   1_455  S
O28         Zr34   2.370       .  S
O28       Zr2707   2.386   1_455  S
O28       Zr2721   2.392   1_455  S
O28          H63   0.966       .  S
O29         Zr32   2.393       .  S
O29         Zr49   2.396       .  S
O29          H66   0.965       .  S
O30         Zr33   2.390       .  S
O30         Zr49   2.398       .  S
Zr31         O56   2.444       .  S
Zr31         O58   2.440       .  S
Zr31         O46   2.454       .  S
Zr31       O2738   2.432   1_455  S
Zr31         O37   2.407       .  S
Zr31         O38   2.406       .  S
Zr31       O2727   2.373   1_455  S
Zr31       O2728   2.390   1_455  S
Zr32        O723   2.437       .  S
Zr32       O2060   2.436       .  S
Zr32        O696   2.407       .  S
Zr32       O2061   2.404       .  S
Zr32         O39   2.380       .  S
Zr32       O1371   2.385       .  S
Zr32       O1382   2.392       .  S
Zr33         O35   2.434       .  S
Zr33       O1401   2.439       .  S
Zr33       O1403   2.430       .  S
Zr33         O40   2.390       .  S
Zr33       O1372   2.391       .  S
Zr33       O1381   2.384       .  S
Zr34         O60   2.438       .  S
Zr34         O61   2.432       .  S
Zr34         O36   2.436       .  S
Zr34         O37   2.389       .  S
Zr34         O38   2.403       .  S
O35          H72   0.990       .  S
O36          H67   0.990       .  S
O36          H81   0.990       .  S
O37       Zr2721   2.384   1_455  S
O38       Zr2720   2.393   1_455  S
O38          H64   0.966       .  S
O39         Zr49   2.374       .  S
O39       Zr1375   2.373       .  S
O40         Zr49   2.376       .  S
O40       Zr1375   2.389       .  S
O40          H65   0.966       .  S
C41        O2709   1.285       .  A
C42          C96   1.489       .  S
C43         C938   1.468       .  S
C43         O696   1.280       .  A
O44       Zr3392   2.436   1_445  S
O44          H80   0.990       .  S
O45       Zr3392   2.405   1_445  S
O45         C719   1.280   1_545  A
O46          C47   1.287       .  A
C47         C927   1.473       .  S
C47         O717   1.280       .  A
O48         Zr49   2.430       .  S
O48          H77   0.990       .  S
Zr49         O52   2.438       .  S
Zr49         O53   2.437       .  S
Zr49         O54   2.428       .  S
O50       Zr1375   2.432       .  S
O50          C55   1.285       .  A
O51        Zr704   2.437   1_545  S
O51          H68   0.990       .  S
O51          H83   0.990       .  S
O52          H69   0.991       .  S
O53          H73   0.990       .  S
O53          H82   0.990       .  S
O54          C55   1.282       .  A
O56          H75   0.990       .  S
O56          H79   0.990       .  S
O57       Zr2721   2.439   1_455  S
O57          H71   0.990       .  S
O57          H78   0.990       .  S
O58          C62   1.286       .  A
O59       Zr2721   2.431   1_455  S
O59          C62   1.287       .  A
O60          H70   0.990       .  S
O61          H74   0.990       .  S
C62          C87   1.487       .  S
C85          C86   1.409       .  A
C85          C90   1.407       .  A
C85         C475   1.473       .  S
C86          C87   1.410       .  A
C86          H91   1.084       .  S
C87          C88   1.404       .  A
C88          C89   1.400       .  A
C88          H92   1.084       .  S
C89          C90   1.401       .  A
C89         C210   1.474       .  S
C90          H93   1.084       .  S
C94          C95   1.412       .  A
C94          C99   1.402       .  A
C94         C125   1.469       .  S
C95          C96   1.412       .  A
C95         H100   1.083       .  S
C96          C97   1.404       .  A
C97          C98   1.397       .  A
C97         H101   1.084       .  S
C98          C99   1.394       .  A
C98         C230   1.464       .  S
C99         H102   1.085       .  S
Zr103       O104   2.440       .  S
Zr103       O105   2.430       .  S
Zr103       O106   2.454       .  S
Zr103       O109   2.430       .  S
Zr103       O111   2.373       .  S
Zr103       O112   2.386       .  S
Zr103       O113   2.405       .  S
Zr103       O114   2.409       .  S
O104        H160   0.990       .  S
O104        H168   0.990       .  S
O105        C125   1.284       .  A
O106        C127   1.287       .  A
O107       Zr117   2.432       .  S
O107        C126   1.288       .  A
O108       Zr116   2.406       .  S
O108        C127   1.281       .  A
O109        C126   1.284       .  A
O110       Zr118   2.428       .  S
O110        C125   1.281       .  A
O111       Zr116   2.385       .  S
O111       Zr118   2.375       .  S
O112       Zr117   2.389       .  S
O112       Zr118   2.371       .  S
O112        H147   0.966       .  S
O113       Zr116   2.392       .  S
O113       Zr133   2.403       .  S
O113        H150   0.966       .  S
O114       Zr117   2.381       .  S
O114       Zr133   2.389       .  S
Zr115       O140   2.449       .  S
Zr115       O134   2.439       .  S
Zr115       O142   2.447       .  S
Zr115       O130   2.454       .  S
Zr115       O121   2.410       .  S
Zr115       O122   2.405       .  S
Zr115       O123   2.379       .  S
Zr115       O124   2.389       .  S
Zr116       O135   2.434       .  S
Zr116       O128   2.435       .  S
Zr116       O129   2.408       .  S
Zr116       O122   2.392       .  S
Zr116       O123   2.380       .  S
Zr117       O119   2.437       .  S
Zr117       O141   2.436       .  S
Zr117       O143   2.425       .  S
Zr117       O121   2.386       .  S
Zr117       O124   2.388       .  S
Zr118       O144   2.434       .  S
Zr118       O145   2.428       .  S
Zr118       O120   2.436       .  S
Zr118       O121   2.395       .  S
Zr118       O122   2.390       .  S
O119        H156   0.990       .  S
O120        H151   0.990       .  S
O120        H165   0.990       .  S
O122        H148   0.965       .  S
O123       Zr133   2.379       .  S
O124       Zr133   2.375       .  S
O124        H149   0.966       .  S
C127        C173   1.474       .  S
O128        H164   0.990       .  S
O129        C131   1.280       .  A
O130        C131   1.288       .  A
C131        C182   1.470       .  S
O132       Zr133   2.433       .  S
O132        H161   0.990       .  S
Zr133       O136   2.434       .  S
Zr133       O137   2.443       .  S
Zr133       O138   2.432       .  S
O134        C139   1.286       .  A
O135        H152   0.990       .  S
O135        H167   0.990       .  S
O136        H153   0.990       .  S
O137        H157   0.991       .  S
O137        H166   0.990       .  S
O138        C139   1.284       .  A
C139        C421   1.474   1_554  S
O140        H159   0.990       .  S
O140        H163   0.990       .  S
O141        H155   0.990       .  S
O141        H162   0.990       .  S
O142        C146   1.287       .  A
O143        C146   1.286       .  A
O144        H154   0.990       .  S
O145        H158   0.990       .  S
C169        C170   1.408       .  A
C169        C174   1.409       .  A
C169        C223   1.475       .  S
C170        C171   1.409       .  A
C170        H175   1.084       .  S
C171        C172   1.403       .  A
C171        C299   1.483       .  S
C172        C173   1.399       .  A
C172        H176   1.084       .  S
C173        C174   1.402       .  A
C174        H177   1.084       .  S
C178        C179   1.409       .  A
C178        C183   1.403       .  A
C178        C209   1.467       .  S
C179        C516   1.411       .  A
C179        H184   1.083       .  S
C180        C181   1.408       .  A
C180        C515   1.411   1_554  A
C180        C295   1.489       .  S
C181        C182   1.402       .  A
C181        H185   1.084       .  S
C182        C519   1.394   1_554  A
C183        C518   1.394       .  A
C183        H186   1.085       .  S
Zr187       O188   2.440       .  S
Zr187       O189   2.428       .  S
Zr187       O190   2.438       .  S
Zr187       O193   2.447       .  S
Zr187       O195   2.387       .  S
Zr187       O196   2.376       .  S
Zr187       O197   2.412       .  S
Zr187       O198   2.407       .  S
O188        H244   0.991       .  S
O188        H252   0.990       .  S
O189        C209   1.283       .  A
O190        C211   1.285       .  A
O191       Zr201   2.408       .  S
O191        C210   1.280       .  A
O192       Zr200   2.436       .  S
O192        C211   1.287       .  A
O193        C210   1.286       .  A
O194       Zr202   2.430       .  S
O194        C209   1.282       .  A
O195       Zr200   2.395       .  S
O195       Zr202   2.380       .  S
O196       Zr201   2.380       .  S
O196       Zr202   2.373       .  S
O196        H231   0.966       .  S
O197       Zr200   2.394       .  S
O197       Zr217   2.389       .  S
O197        H234   0.965       .  S
O198       Zr201   2.387       .  S
O198       Zr217   2.409       .  S
Zr199       O224   2.447       .  S
Zr199       O218   2.441       .  S
Zr199       O226   2.439       .  S
Zr199       O214   2.450       .  S
Zr199       O205   2.403       .  S
Zr199       O206   2.412       .  S
Zr199       O207   2.384       .  S
Zr199       O208   2.383       .  S
Zr200       O219   2.437       .  S
Zr200       O212   2.436       .  S
Zr200       O213   2.435       .  S
Zr200       O206   2.391       .  S
Zr200       O207   2.394       .  S
Zr201       O203   2.435       .  S
Zr201       O225   2.439       .  S
Zr201       O227   2.402       .  S
Zr201       O205   2.386       .  S
Zr201       O208   2.376       .  S
Zr202       O228   2.437       .  S
Zr202       O229   2.431       .  S
Zr202       O204   2.437       .  S
Zr202       O205   2.394       .  S
Zr202       O206   2.395       .  S
O203        H240   0.990       .  S
O204        H235   0.990       .  S
O204        H249   0.990       .  S
O206        H232   0.966       .  S
O207       Zr217   2.375       .  S
O208       Zr217   2.373       .  S
O208        H233   0.965       .  S
C211        C257   1.483       .  S
O212        H248   0.990       .  S
O213        C215   1.288       .  A
O214        C215   1.288       .  A
C215        C264   1.492       .  S
O216       Zr217   2.433       .  S
O216        H245   0.990       .  S
Zr217       O220   2.435       .  S
Zr217       O221   2.437       .  S
Zr217       O222   2.436       .  S
O218        C223   1.286       .  A
O219        H236   0.990       .  S
O219        H251   0.990       .  S
O220        H237   0.990       .  S
O221        H241   0.990       .  S
O221        H250   0.990       .  S
O222        C223   1.284       .  A
O224        H243   0.990       .  S
O224        H247   0.990       .  S
O225        H239   0.990       .  S
O225        H246   0.990       .  S
O226        C230   1.285       .  A
O227        C230   1.280       .  A
O228        H238   0.990       .  S
O229        H242   0.990       .  S
C253        C254   1.406       .  A
C253        C258   1.407       .  A
C253        C629   1.470       .  S
C254        C255   1.399       .  A
C254        H259   1.084       .  S
C255        C256   1.401       .  A
C255        C719   1.472   1_545  S
C256        C257   1.404       .  A
C256        H260   1.084       .  S
C257        C258   1.408       .  A
C258        H261   1.084       .  S
C262        C263   1.411       .  A
C262        C267   1.404       .  A
C262        C307   1.470       .  S
C263        C264   1.413       .  A
C263        H268   1.083       .  S
C264        C265   1.407       .  A
C265        C266   1.400       .  A
C265        H269   1.084       .  S
C266        C267   1.394       .  A
C266        C715   1.468   1_545  S
C267        H270   1.085       .  S
Zr271       O272   2.441       .  S
Zr271       O273   2.443       .  S
Zr271       O274   2.453       .  S
Zr271       O277   2.437       .  S
Zr271       O281   2.416       .  S
Zr271       O282   2.402       .  S
Zr271      O1623   2.381       .  S
Zr271      O1624   2.384       .  S
O272        H328   0.990       .  S
O272        H336   0.990       .  S
O273       C1637   1.286       .  A
O274        C295   1.287       .  A
O275       Zr957   2.404       .  S
O275        C294   1.280       .  A
O276       Zr284   2.430       .  S
O276        C295   1.286       .  A
O277        C966   1.285   1_545  A
O278       Zr286   2.423       .  S
O278        C293   1.281       .  A
O279       Zr286   2.377       .  S
O279      Zr2959   2.383   1_455  S
O279      Zr2972   2.396   1_455  S
O280       Zr286   2.376       .  S
O280      Zr2959   2.384   1_455  S
O280      Zr2973   2.379   1_455  S
O280        H315   0.966       .  S
O281       Zr284   2.397       .  S
O281       Zr301   2.394       .  S
O281        H318   0.966       .  S
O282       Zr285   2.382       .  S
O282       Zr301   2.393       .  S
Zr283       O308   2.444       .  S
Zr283       O310   2.440       .  S
Zr283       O298   2.428       .  S
Zr283      O2990   2.430   1_455  S
Zr283       O289   2.405       .  S
Zr283       O290   2.409       .  S
Zr283      O2979   2.386   1_455  S
Zr283      O2980   2.375   1_455  S
Zr284       O303   2.435       .  S
Zr284      O1640   2.434       .  S
Zr284      O1641   2.436       .  S
Zr284       O291   2.387       .  S
Zr284      O1623   2.395       .  S
Zr284      O1634   2.390       .  S
Zr285       O959   2.437   1_545  S
Zr285      O2325   2.436   1_545  S
Zr285       O947   2.404   1_545  S
Zr285      O2327   2.406   1_545  S
Zr285       O292   2.375       .  S
Zr285      O1624   2.378       .  S
Zr285      O1633   2.387       .  S
Zr286       O312   2.436       .  S
Zr286       O313   2.432       .  S
Zr286       O288   2.439       .  S
Zr286       O289   2.407       .  S
Zr286       O290   2.387       .  S
O287       Zr957   2.438       .  S
O287        H324   0.990       .  S
O288        H319   0.990       .  S
O288        H333   0.990       .  S
O289      Zr2973   2.387   1_455  S
O290      Zr2972   2.390   1_455  S
O290        H316   0.965       .  S
O291       Zr301   2.376       .  S
O291      Zr1627   2.386       .  S
O292       Zr301   2.372       .  S
O292      Zr1627   2.374       .  S
O292        H317   0.965       .  S
C293        C589   1.470   1_554  S
C293       O2961   1.286       .  A
C294        O949   1.285       .  A
O296      Zr2972   2.436   1_455  S
O296        H332   0.990       .  S
O297      Zr2972   2.436   1_455  S
O297        C299   1.288       .  A
O298        C299   1.284       .  A
O300       Zr301   2.431       .  S
O300        H329   0.990       .  S
Zr301       O304   2.436       .  S
Zr301       O305   2.440       .  S
Zr301       O306   2.430       .  S
O302      Zr1627   2.430       .  S
O302        C307   1.285       .  A
O303        H320   0.990       .  S
O303        H335   0.990       .  S
O304        H321   0.990       .  S
O305        H325   0.991       .  S
O305        H334   0.989       .  S
O306        C307   1.282       .  A
O308        H327   0.990       .  S
O308        H331   0.990       .  S
O309      Zr3645   2.437   1_455  S
O309        H323   0.990       .  S
O309        H330   0.990       .  S
O310        C986   1.284   1_545  A
O311      Zr3645   2.406   1_455  S
O311        C314   1.281       .  A
O312        H322   0.990       .  S
O313        H326   0.990       .  S
C314        O982   1.285       .  A
C337        C338   1.408       .  A
C337        C342   1.406       .  A
C337        C377   1.470       .  S
C338        C339   1.408       .  A
C338        H343   1.084       .  S
C339        C340   1.400       .  A
C339        C462   1.482       .  S
C340        C341   1.397       .  A
C340        H344   1.085       .  S
C341        C342   1.400       .  A
C341        C650   1.468       .  S
C342        H345   1.084       .  S
C346        C347   1.402       .  A
C346        C351   1.411       .  A
C346        C391   1.469       .  S
C347        H352   1.085       .  S
C348        C349   1.397       .  A
C348        C630   1.463       .  S
C349        C350   1.405       .  A
C349        H353   1.084       .  S
C350        C482   1.487       .  S
C351        H354   1.083       .  S
Zr355       O356   2.439       .  S
Zr355       O357   2.435       .  S
Zr355       O358   2.451       .  S
Zr355       O361   2.442       .  S
Zr355      O1707   2.377       .  S
Zr355      O1708   2.386       .  S
Zr355       O365   2.408       .  S
Zr355       O366   2.412       .  S
O356        H412   0.990       .  S
O356        H420   0.990       .  S
O357       C1721   1.284       .  A
O358        C379   1.286       .  A
O359       Zr369   2.428       .  S
O359        C378   1.286       .  A
O360      Zr1040   2.408   1_545  S
O360       C1051   1.280   1_545  A
O361        C378   1.286       .  A
O362       Zr370   2.425       .  S
O362        C377   1.282       .  A
O363      Zr3043   2.377   1_455  S
O363      Zr3056   2.384   1_455  S
O363       Zr370   2.379       .  S
O364      Zr3043   2.386   1_455  S
O364      Zr3057   2.391   1_455  S
O364       Zr370   2.371       .  S
O364        H399   0.966       .  S
O365       Zr368   2.394       .  S
O365       Zr385   2.398       .  S
O365        H402   0.965       .  S
O366       Zr369   2.389       .  S
O366       Zr385   2.397       .  S
Zr367       O392   2.445       .  S
Zr367      O3074   2.434   1_455  S
Zr367       O394   2.440       .  S
Zr367       O382   2.454       .  S
Zr367       O373   2.407       .  S
Zr367       O374   2.407       .  S
Zr367      O3063   2.373   1_455  S
Zr367      O3064   2.389   1_455  S
Zr368      O1059   2.437       .  S
Zr368      O2396   2.435       .  S
Zr368      O1032   2.408       .  S
Zr368      O2397   2.406       .  S
Zr368      O1707   2.384       .  S
Zr368      O1718   2.392       .  S
Zr368       O375   2.381       .  S
Zr369       O371   2.434       .  S
Zr369      O1737   2.438       .  S
Zr369      O1739   2.430       .  S
Zr369      O1708   2.391       .  S
Zr369      O1717   2.384       .  S
Zr369       O376   2.389       .  S
Zr370       O396   2.438       .  S
Zr370       O397   2.432       .  S
Zr370       O372   2.436       .  S
Zr370       O373   2.388       .  S
Zr370       O374   2.403       .  S
O371        H408   0.990       .  S
O372        H403   0.990       .  S
O372        H417   0.990       .  S
O373      Zr3057   2.385   1_455  S
O374      Zr3056   2.393   1_455  S
O374        H400   0.966       .  S
O375      Zr1711   2.373       .  S
O375       Zr385   2.374       .  S
O376      Zr1711   2.389       .  S
O376       Zr385   2.375       .  S
O376        H401   0.966       .  S
C377       O3045   1.285       .  A
C378        C432   1.488       .  S
C379       C1274   1.468       .  S
C379       O1032   1.280       .  A
O380      Zr3728   2.436   1_445  S
O380        H416   0.990       .  S
O381      Zr3728   2.404   1_445  S
O381       C1055   1.280   1_545  A
O382        C383   1.287       .  A
C383       C1263   1.473       .  S
C383       O1053   1.280       .  A
O384       Zr385   2.430       .  S
O384        H413   0.990       .  S
Zr385       O388   2.438       .  S
Zr385       O389   2.437       .  S
Zr385       O390   2.429       .  S
O386      Zr1711   2.433       .  S
O386        C391   1.285       .  A
O387      Zr1040   2.437   1_545  S
O387        H404   0.990       .  S
O387        H419   0.990       .  S
O388        H405   0.991       .  S
O389        H409   0.990       .  S
O389        H418   0.990       .  S
O390        C391   1.282       .  A
O392        H411   0.990       .  S
O392        H415   0.990       .  S
O393      Zr3057   2.439   1_455  S
O393        H407   0.990       .  S
O393        H414   0.990       .  S
O394        C398   1.286       .  A
O395      Zr3057   2.430   1_455  S
O395        C398   1.287       .  A
O396        H406   0.990       .  S
O397        H410   0.990       .  S
C398        C423   1.487       .  S
C421        C422   1.410       .  A
C421        C426   1.407       .  A
C422        C423   1.410       .  A
C422        H427   1.084       .  S
C423        C424   1.403       .  A
C424        C425   1.400       .  A
C424        H428   1.084       .  S
C425        C426   1.401       .  A
C425        C546   1.474       .  S
C426        H429   1.084       .  S
C430        C431   1.412       .  A
C430        C435   1.402       .  A
C430        C461   1.468       .  S
C431        C432   1.412       .  A
C431        H436   1.083       .  S
C432        C433   1.404       .  A
C433        C434   1.397       .  A
C433        H437   1.084       .  S
C434        C435   1.394       .  A
C434        C566   1.463       .  S
C435        H438   1.085       .  S
Zr439       O440   2.440       .  S
Zr439       O441   2.430       .  S
Zr439       O442   2.456       .  S
Zr439       O445   2.428       .  S
Zr439       O447   2.373       .  S
Zr439       O448   2.388       .  S
Zr439       O449   2.405       .  S
Zr439       O450   2.409       .  S
O440        H496   0.990       .  S
O440        H504   0.990       .  S
O441        C461   1.284       .  A
O442        C463   1.287       .  A
O443       Zr453   2.432       .  S
O443        C462   1.288       .  A
O444       Zr452   2.408       .  S
O444        C463   1.281       .  A
O445        C462   1.284       .  A
O446       Zr454   2.426       .  S
O446        C461   1.281       .  A
O447       Zr452   2.384       .  S
O447       Zr454   2.376       .  S
O448       Zr453   2.388       .  S
O448       Zr454   2.371       .  S
O448        H483   0.967       .  S
O449       Zr452   2.392       .  S
O449       Zr469   2.405       .  S
O449        H486   0.966       .  S
O450       Zr453   2.382       .  S
O450       Zr469   2.389       .  S
Zr451       O476   2.448       .  S
Zr451       O470   2.439       .  S
Zr451       O478   2.445       .  S
Zr451       O466   2.455       .  S
Zr451       O457   2.410       .  S
Zr451       O458   2.405       .  S
Zr451       O459   2.379       .  S
Zr451       O460   2.389       .  S
Zr452       O471   2.433       .  S
Zr452       O464   2.436       .  S
Zr452       O465   2.407       .  S
Zr452       O458   2.392       .  S
Zr452       O459   2.380       .  S
Zr453       O455   2.436       .  S
Zr453       O477   2.436       .  S
Zr453       O479   2.427       .  S
Zr453       O457   2.384       .  S
Zr453       O460   2.388       .  S
Zr454       O480   2.434       .  S
Zr454       O481   2.427       .  S
Zr454       O456   2.436       .  S
Zr454       O457   2.395       .  S
Zr454       O458   2.389       .  S
O455        H492   0.990       .  S
O456        H487   0.990       .  S
O456        H501   0.990       .  S
O458        H484   0.965       .  S
O459       Zr469   2.379       .  S
O460       Zr469   2.375       .  S
O460        H485   0.966       .  S
C463        C509   1.475       .  S
O464        H500   0.990       .  S
O465        C467   1.280       .  A
O466        C467   1.288       .  A
C467        C518   1.470       .  S
O468       Zr469   2.433       .  S
O468        H497   0.990       .  S
Zr469       O472   2.435       .  S
Zr469       O473   2.444       .  S
Zr469       O474   2.431       .  S
O470        C475   1.286       .  A
O471        H488   0.990       .  S
O471        H503   0.990       .  S
O472        H489   0.990       .  S
O473        H493   0.991       .  S
O473        H502   0.990       .  S
O474        C475   1.283       .  A
O476        H495   0.990       .  S
O476        H499   0.990       .  S
O477        H491   0.990       .  S
O477        H498   0.990       .  S
O478        C482   1.286       .  A
O479        C482   1.286       .  A
O480        H490   0.990       .  S
O481        H494   0.990       .  S
C505        C506   1.408       .  A
C505        C510   1.409       .  A
C505        C559   1.474       .  S
C506        C507   1.408       .  A
C506        H511   1.084       .  S
C507        C508   1.404       .  A
C507        C635   1.483       .  S
C508        C509   1.400       .  A
C508        H512   1.084       .  S
C509        C510   1.401       .  A
C510        H513   1.084       .  S
C514        C515   1.409       .  A
C514        C519   1.403       .  A
C514        C545   1.467       .  S
C515        H520   1.083       .  S
C516        C517   1.408       .  A
C516        C631   1.490       .  S
C517        C518   1.403       .  A
C517        H521   1.084       .  S
C519        H522   1.085       .  S
Zr523       O524   2.440       .  S
Zr523       O525   2.425       .  S
Zr523       O526   2.438       .  S
Zr523       O529   2.447       .  S
Zr523       O531   2.386       .  S
Zr523       O532   2.377       .  S
Zr523       O533   2.411       .  S
Zr523       O534   2.406       .  S
O524        H580   0.991       .  S
O524        H588   0.990       .  S
O525        C545   1.283       .  A
O526        C547   1.285       .  A
O527       Zr537   2.408       .  S
O527        C546   1.280       .  A
O528       Zr536   2.437       .  S
O528        C547   1.287       .  A
O529        C546   1.286       .  A
O530       Zr538   2.430       .  S
O530        C545   1.282       .  A
O531       Zr536   2.394       .  S
O531       Zr538   2.380       .  S
O532       Zr537   2.380       .  S
O532       Zr538   2.374       .  S
O532        H567   0.966       .  S
O533       Zr536   2.393       .  S
O533       Zr553   2.390       .  S
O533        H570   0.965       .  S
O534       Zr537   2.387       .  S
O534       Zr553   2.408       .  S
Zr535       O560   2.448       .  S
Zr535       O554   2.439       .  S
Zr535       O562   2.439       .  S
Zr535       O550   2.450       .  S
Zr535       O541   2.404       .  S
Zr535       O542   2.411       .  S
Zr535       O543   2.384       .  S
Zr535       O544   2.384       .  S
Zr536       O555   2.437       .  S
Zr536       O548   2.436       .  S
Zr536       O549   2.433       .  S
Zr536       O542   2.392       .  S
Zr536       O543   2.393       .  S
Zr537       O539   2.436       .  S
Zr537       O561   2.440       .  S
Zr537       O563   2.400       .  S
Zr537       O541   2.387       .  S
Zr537       O544   2.377       .  S
Zr538       O564   2.438       .  S
Zr538       O565   2.431       .  S
Zr538       O540   2.437       .  S
Zr538       O541   2.395       .  S
Zr538       O542   2.394       .  S
O539        H576   0.990       .  S
O540        H571   0.990       .  S
O540        H585   0.990       .  S
O542        H568   0.966       .  S
O543       Zr553   2.375       .  S
O544       Zr553   2.373       .  S
O544        H569   0.965       .  S
C547        C593   1.484       .  S
O548        H584   0.990       .  S
O549        C551   1.288       .  A
O550        C551   1.287       .  A
C551        C600   1.492       .  S
O552       Zr553   2.432       .  S
O552        H581   0.990       .  S
Zr553       O556   2.435       .  S
Zr553       O557   2.436       .  S
Zr553       O558   2.435       .  S
O554        C559   1.286       .  A
O555        H572   0.990       .  S
O555        H587   0.990       .  S
O556        H573   0.990       .  S
O557        H577   0.990       .  S
O557        H586   0.990       .  S
O558        C559   1.284       .  A
O560        H579   0.990       .  S
O560        H583   0.990       .  S
O561        H575   0.990       .  S
O561        H582   0.990       .  S
O562        C566   1.284       .  A
O563        C566   1.280       .  A
O564        H574   0.990       .  S
O565        H578   0.990       .  S
C589        C590   1.406       .  A
C589        C594   1.408       .  A
C590        C591   1.399       .  A
C590        H595   1.084       .  S
C591        C592   1.402       .  A
C591       C1055   1.473   1_545  S
C592        C593   1.404       .  A
C592        H596   1.084       .  S
C593        C594   1.408       .  A
C594        H597   1.084       .  S
C598        C599   1.411       .  A
C598        C603   1.404       .  A
C598        C643   1.469       .  S
C599        C600   1.412       .  A
C599        H604   1.083       .  S
C600        C601   1.407       .  A
C601        C602   1.399       .  A
C601        H605   1.084       .  S
C602        C603   1.394       .  A
C602       C1051   1.468   1_545  S
C603        H606   1.085       .  S
Zr607       O608   2.441       .  S
Zr607       O609   2.441       .  S
Zr607       O610   2.455       .  S
Zr607       O613   2.435       .  S
Zr607      O1959   2.381       .  S
Zr607      O1960   2.385       .  S
Zr607       O617   2.414       .  S
Zr607       O618   2.404       .  S
O608        H664   0.990       .  S
O608        H672   0.990       .  S
O609       C1973   1.286       .  A
O610        C631   1.288       .  A
O611      Zr1293   2.402       .  S
O611        C630   1.279       .  A
O612       Zr620   2.429       .  S
O612        C631   1.286       .  A
O613       C1302   1.284   1_545  A
O614       Zr622   2.424       .  S
O614        C629   1.281       .  A
O615      Zr3295   2.380   1_455  S
O615      Zr3308   2.395   1_455  S
O615       Zr622   2.377       .  S
O616      Zr3295   2.385   1_455  S
O616      Zr3309   2.378   1_455  S
O616       Zr622   2.375       .  S
O616        H651   0.966       .  S
O617       Zr620   2.397       .  S
O617       Zr637   2.394       .  S
O617        H654   0.966       .  S
O618       Zr621   2.383       .  S
O618       Zr637   2.394       .  S
Zr619       O644   2.444       .  S
Zr619      O3326   2.429   1_455  S
Zr619       O646   2.439       .  S
Zr619       O634   2.429       .  S
Zr619       O625   2.405       .  S
Zr619       O626   2.407       .  S
Zr619      O3315   2.386   1_455  S
Zr619      O3316   2.375   1_455  S
Zr620       O639   2.436       .  S
Zr620      O1976   2.434       .  S
Zr620      O1977   2.436       .  S
Zr620      O1959   2.395       .  S
Zr620      O1970   2.389       .  S
Zr620       O627   2.388       .  S
Zr621      O1295   2.438   1_545  S
Zr621      O2661   2.437   1_545  S
Zr621      O1283   2.402   1_545  S
Zr621      O2663   2.406   1_545  S
Zr621      O1960   2.378       .  S
Zr621      O1969   2.387       .  S
Zr621       O628   2.374       .  S
Zr622       O648   2.436       .  S
Zr622       O649   2.431       .  S
Zr622       O624   2.439       .  S
Zr622       O625   2.406       .  S
Zr622       O626   2.387       .  S
O623      Zr1293   2.438       .  S
O623        H660   0.990       .  S
O624        H655   0.990       .  S
O624        H669   0.990       .  S
O625      Zr3309   2.386   1_455  S
O626      Zr3308   2.389   1_455  S
O626        H652   0.965       .  S
O627      Zr1963   2.386       .  S
O627       Zr637   2.376       .  S
O628      Zr1963   2.374       .  S
O628       Zr637   2.372       .  S
O628        H653   0.965       .  S
C629       O3297   1.286       .  A
C630       O1285   1.285       .  A
O632      Zr3308   2.434   1_455  S
O632        H668   0.990       .  S
O633      Zr3308   2.435   1_455  S
O633        C635   1.288       .  A
O634        C635   1.284       .  A
O636       Zr637   2.431       .  S
O636        H665   0.990       .  S
Zr637       O640   2.435       .  S
Zr637       O641   2.441       .  S
Zr637       O642   2.430       .  S
O638      Zr1963   2.429       .  S
O638        C643   1.285       .  A
O639        H656   0.990       .  S
O639        H671   0.990       .  S
O640        H657   0.990       .  S
O641        H661   0.991       .  S
O641        H670   0.990       .  S
O642        C643   1.282       .  A
O644        H663   0.990       .  S
O644        H667   0.990       .  S
O645      Zr3981   2.437   1_455  S
O645        H659   0.990       .  S
O645        H666   0.990       .  S
O646       C1322   1.284   1_545  A
O647      Zr3981   2.406   1_455  S
O647        C650   1.281       .  A
O648        H658   0.990       .  S
O649        H662   0.990       .  S
C650       O1318   1.285       .  A
C673        C674   1.409       .  A
C673        C678   1.407       .  A
C673        C713   1.472       .  S
C674        C675   1.409       .  A
C674        H679   1.084       .  S
C675        C676   1.400       .  A
C675        C798   1.482       .  S
C676        C677   1.397       .  A
C676        H680   1.085       .  S
C677        C678   1.400       .  A
C677        C986   1.468       .  S
C678        H681   1.084       .  S
C682        C683   1.402       .  A
C682        C687   1.411       .  A
C682        C727   1.469       .  S
C683       C1020   1.394       .  A
C683        H688   1.085       .  S
C684       C1019   1.394   1_554  A
C684        C685   1.397       .  A
C684        C966   1.464       .  S
C685        C686   1.406       .  A
C685        H689   1.084       .  S
C686       C1023   1.411   1_554  A
C686        C818   1.488       .  S
C687       C1022   1.412       .  A
C687        H690   1.083       .  S
Zr691       O692   2.439       .  S
Zr691       O693   2.437       .  S
Zr691       O694   2.452       .  S
Zr691       O697   2.441       .  S
Zr691      O2043   2.378       .  S
Zr691      O2044   2.386       .  S
Zr691       O701   2.408       .  S
Zr691       O702   2.413       .  S
O692        H748   0.990       .  S
O692        H756   0.990       .  S
O693       C2057   1.285       .  A
O694        C715   1.287       .  A
O695       Zr705   2.430       .  S
O695        C714   1.287       .  A
O697        C714   1.286       .  A
O698       Zr706   2.426       .  S
O698        C713   1.282       .  A
O699      Zr3379   2.378   1_455  S
O699      Zr3392   2.385   1_455  S
O699       Zr706   2.378       .  S
O700      Zr3379   2.386   1_455  S
O700      Zr3393   2.391   1_455  S
O700       Zr706   2.370       .  S
O700        H735   0.966       .  S
O701       Zr704   2.393       .  S
O701       Zr721   2.396       .  S
O701        H738   0.965       .  S
O702       Zr705   2.389       .  S
O702       Zr721   2.398       .  S
Zr703       O728   2.445       .  S
Zr703      O3410   2.434   1_455  S
Zr703       O730   2.438       .  S
Zr703       O718   2.452       .  S
Zr703       O709   2.407       .  S
Zr703       O710   2.407       .  S
Zr703      O3399   2.373   1_455  S
Zr703      O3400   2.389   1_455  S
Zr704      O1388   2.435   1_565  S
Zr704      O1389   2.405   1_565  S
Zr704      O2043   2.385       .  S
Zr704      O2054   2.392       .  S
Zr704       O711   2.381       .  S
Zr705       O707   2.435       .  S
Zr705      O2073   2.439       .  S
Zr705      O2075   2.430       .  S
Zr705      O2044   2.391       .  S
Zr705      O2053   2.384       .  S
Zr705       O712   2.390       .  S
Zr706       O732   2.438       .  S
Zr706       O733   2.432       .  S
Zr706       O708   2.436       .  S
Zr706       O709   2.390       .  S
Zr706       O710   2.403       .  S
O707        H744   0.990       .  S
O708        H739   0.990       .  S
O708        H753   0.990       .  S
O709      Zr3393   2.384   1_455  S
O710      Zr3392   2.391   1_455  S
O710        H736   0.966       .  S
O711      Zr2047   2.373       .  S
O711       Zr721   2.374       .  S
O712      Zr2047   2.389       .  S
O712       Zr721   2.376       .  S
O712        H737   0.966       .  S
C713       O3381   1.285       .  A
C714        C768   1.488       .  S
O716      Zr2720   2.435   1_455  S
O716        H752   0.990       .  S
O717      Zr2720   2.405   1_455  S
O718        C719   1.287       .  A
O720       Zr721   2.430       .  S
O720        H749   0.990       .  S
Zr721       O724   2.438       .  S
Zr721       O725   2.437       .  S
Zr721       O726   2.428       .  S
O722      Zr2047   2.434       .  S
O722        C727   1.285       .  A
O723        H740   0.990       .  S
O723        H755   0.990       .  S
O724        H741   0.991       .  S
O725        H745   0.990       .  S
O725        H754   0.990       .  S
O726        C727   1.281       .  A
O728        H747   0.990       .  S
O728        H751   0.990       .  S
O729      Zr3393   2.439   1_455  S
O729        H743   0.990       .  S
O729        H750   0.990       .  S
O730        C734   1.286       .  A
O731      Zr3393   2.429   1_455  S
O731        C734   1.287       .  A
O732        H742   0.990       .  S
O733        H746   0.990       .  S
C734        C759   1.486       .  S
C757        C758   1.409       .  A
C757        C762   1.408       .  A
C757       C1147   1.473       .  S
C758        C759   1.409       .  A
C758        H763   1.084       .  S
C759        C760   1.404       .  A
C760        C761   1.400       .  A
C760        H764   1.084       .  S
C761        C762   1.401       .  A
C761        C882   1.475       .  S
C762        H765   1.084       .  S
C766        C767   1.412       .  A
C766        C771   1.402       .  A
C766        C797   1.470       .  S
C767        C768   1.413       .  A
C767        H772   1.083       .  S
C768        C769   1.404       .  A
C769        C770   1.397       .  A
C769        H773   1.084       .  S
C770        C771   1.394       .  A
C770        C902   1.463       .  S
C771        H774   1.085       .  S
Zr775       O776   2.440       .  S
Zr775       O777   2.432       .  S
Zr775       O778   2.454       .  S
Zr775       O781   2.429       .  S
Zr775       O783   2.373       .  S
Zr775       O784   2.387       .  S
Zr775       O785   2.405       .  S
Zr775       O786   2.408       .  S
O776        H832   0.990       .  S
O776        H840   0.990       .  S
O777        C797   1.284       .  A
O778        C799   1.286       .  A
O779       Zr789   2.432       .  S
O779        C798   1.288       .  A
O780       Zr788   2.406       .  S
O780        C799   1.281       .  A
O781        C798   1.284       .  A
O782       Zr790   2.428       .  S
O782        C797   1.281       .  A
O783       Zr788   2.385       .  S
O783       Zr790   2.375       .  S
O784       Zr789   2.389       .  S
O784       Zr790   2.371       .  S
O784        H819   0.967       .  S
O785       Zr788   2.392       .  S
O785       Zr805   2.404       .  S
O785        H822   0.966       .  S
O786       Zr789   2.381       .  S
O786       Zr805   2.389       .  S
Zr787       O812   2.448       .  S
Zr787       O806   2.437       .  S
Zr787       O814   2.449       .  S
Zr787       O802   2.458       .  S
Zr787       O793   2.410       .  S
Zr787       O794   2.405       .  S
Zr787       O795   2.378       .  S
Zr787       O796   2.390       .  S
Zr788       O807   2.434       .  S
Zr788       O800   2.436       .  S
Zr788       O801   2.407       .  S
Zr788       O794   2.392       .  S
Zr788       O795   2.380       .  S
Zr789       O791   2.437       .  S
Zr789       O813   2.437       .  S
Zr789       O815   2.425       .  S
Zr789       O793   2.386       .  S
Zr789       O796   2.389       .  S
Zr790       O816   2.434       .  S
Zr790       O817   2.428       .  S
Zr790       O792   2.436       .  S
Zr790       O793   2.396       .  S
Zr790       O794   2.391       .  S
O791        H828   0.990       .  S
O792        H823   0.990       .  S
O792        H837   0.990       .  S
O794        H820   0.965       .  S
O795       Zr805   2.379       .  S
O796       Zr805   2.375       .  S
O796        H821   0.966       .  S
C799        C845   1.473       .  S
O800        H836   0.990       .  S
O801        C803   1.280       .  A
O802        C803   1.288       .  A
C803        C854   1.472       .  S
O804       Zr805   2.434       .  S
O804        H833   0.990       .  S
Zr805       O808   2.435       .  S
Zr805       O809   2.443       .  S
Zr805       O810   2.432       .  S
O806        C811   1.286       .  A
O807        H824   0.990       .  S
O807        H839   0.990       .  S
O808        H825   0.990       .  S
O809        H829   0.991       .  S
O809        H838   0.990       .  S
O810        C811   1.284       .  A
C811       C1093   1.473   1_554  S
O812        H831   0.990       .  S
O812        H835   0.990       .  S
O813        H827   0.990       .  S
O813        H834   0.990       .  S
O814        C818   1.287       .  A
O815        C818   1.286       .  A
O816        H826   0.990       .  S
O817        H830   0.990       .  S
C841        C842   1.408       .  A
C841        C846   1.408       .  A
C841        C895   1.475       .  S
C842        C843   1.409       .  A
C842        H847   1.084       .  S
C843        C844   1.403       .  A
C843        C971   1.483       .  S
C844        C845   1.399       .  A
C844        H848   1.085       .  S
C845        C846   1.401       .  A
C846        H849   1.084       .  S
C850        C851   1.409       .  A
C850        C855   1.404       .  A
C850        C881   1.467       .  S
C851       C1188   1.411       .  A
C851        H856   1.083       .  S
C852       C1187   1.410   1_554  A
C852        C853   1.408       .  A
C852        C967   1.490       .  S
C853        C854   1.403       .  A
C853        H857   1.084       .  S
C854       C1191   1.394   1_554  A
C855       C1190   1.394       .  A
C855        H858   1.085       .  S
Zr859       O860   2.439       .  S
Zr859       O861   2.426       .  S
Zr859       O862   2.437       .  S
Zr859       O865   2.448       .  S
Zr859       O867   2.386       .  S
Zr859       O868   2.376       .  S
Zr859       O869   2.412       .  S
Zr859       O870   2.405       .  S
O860        H916   0.991       .  S
O860        H924   0.990       .  S
O861        C881   1.283       .  A
O862        C883   1.285       .  A
O863       Zr873   2.408       .  S
O863        C882   1.281       .  A
O864       Zr872   2.435       .  S
O864        C883   1.286       .  A
O865        C882   1.286       .  A
O866       Zr874   2.430       .  S
O866        C881   1.282       .  A
O867       Zr872   2.394       .  S
O867       Zr874   2.380       .  S
O868       Zr873   2.379       .  S
O868       Zr874   2.374       .  S
O868        H903   0.966       .  S
O869       Zr872   2.394       .  S
O869       Zr889   2.390       .  S
O869        H906   0.965       .  S
O870       Zr873   2.386       .  S
O870       Zr889   2.408       .  S
Zr871       O896   2.447       .  S
Zr871       O890   2.441       .  S
Zr871       O898   2.438       .  S
Zr871       O886   2.449       .  S
Zr871       O877   2.403       .  S
Zr871       O878   2.411       .  S
Zr871       O879   2.384       .  S
Zr871       O880   2.383       .  S
Zr872       O891   2.437       .  S
Zr872       O884   2.437       .  S
Zr872       O885   2.434       .  S
Zr872       O878   2.391       .  S
Zr872       O879   2.394       .  S
Zr873       O875   2.435       .  S
Zr873       O897   2.439       .  S
Zr873       O899   2.401       .  S
Zr873       O877   2.386       .  S
Zr873       O880   2.376       .  S
Zr874       O900   2.438       .  S
Zr874       O901   2.432       .  S
Zr874       O876   2.437       .  S
Zr874       O877   2.394       .  S
Zr874       O878   2.395       .  S
O875        H912   0.990       .  S
O876        H907   0.990       .  S
O876        H921   0.990       .  S
O878        H904   0.966       .  S
O879       Zr889   2.375       .  S
O880       Zr889   2.372       .  S
O880        H905   0.965       .  S
C883        C929   1.483       .  S
O884        H920   0.990       .  S
O885        C887   1.288       .  A
O886        C887   1.287       .  A
C887        C936   1.492       .  S
O888       Zr889   2.432       .  S
O888        H917   0.990       .  S
Zr889       O892   2.436       .  S
Zr889       O893   2.437       .  S
Zr889       O894   2.437       .  S
O890        C895   1.286       .  A
O891        H908   0.990       .  S
O891        H923   0.990       .  S
O892        H909   0.990       .  S
O893        H913   0.990       .  S
O893        H922   0.990       .  S
O894        C895   1.284       .  A
O896        H915   0.990       .  S
O896        H919   0.990       .  S
O897        H911   0.990       .  S
O897        H918   0.990       .  S
O898        C902   1.284       .  A
O899        C902   1.280       .  A
O900        H910   0.990       .  S
O901        H914   0.990       .  S
C925        C926   1.406       .  A
C925        C930   1.407       .  A
C925       C1301   1.470       .  S
C926        C927   1.400       .  A
C926        H931   1.084       .  S
C927        C928   1.401       .  A
C928        C929   1.404       .  A
C928        H932   1.084       .  S
C929        C930   1.407       .  A
C930        H933   1.084       .  S
C934        C935   1.412       .  A
C934        C939   1.404       .  A
C934        C979   1.470       .  S
C935        C936   1.413       .  A
C935        H940   1.083       .  S
C936        C937   1.407       .  A
C937        C938   1.399       .  A
C937        H941   1.084       .  S
C938        C939   1.394       .  A
C939        H942   1.085       .  S
Zr943       O944   2.441       .  S
Zr943       O945   2.441       .  S
Zr943       O946   2.454       .  S
Zr943       O949   2.438       .  S
Zr943      O2295   2.383       .  S
Zr943      O2296   2.384       .  S
Zr943       O953   2.414       .  S
Zr943       O954   2.403       .  S
O944       H1000   0.990       .  S
O944       H1008   0.990       .  S
O945       C2309   1.286       .  A
O946        C967   1.288       .  A
O947        C966   1.280       .  A
O948       Zr956   2.428       .  S
O948        C967   1.285       .  A
O950       Zr958   2.423       .  S
O950        C965   1.281       .  A
O951      Zr3631   2.383   1_455  S
O951      Zr3644   2.396   1_455  S
O951       Zr958   2.377       .  S
O952      Zr3631   2.384   1_455  S
O952      Zr3645   2.380   1_455  S
O952       Zr958   2.376       .  S
O952        H987   0.966       .  S
O953       Zr956   2.396       .  S
O953       Zr973   2.394       .  S
O953        H990   0.966       .  S
O954       Zr957   2.382       .  S
O954       Zr973   2.394       .  S
Zr955       O980   2.443       .  S
Zr955      O3662   2.429   1_455  S
Zr955       O982   2.441       .  S
Zr955       O970   2.429       .  S
Zr955       O961   2.404       .  S
Zr955       O962   2.409       .  S
Zr955      O3651   2.386   1_455  S
Zr955      O3652   2.375   1_455  S
Zr956       O975   2.435       .  S
Zr956      O2312   2.433       .  S
Zr956      O2313   2.436       .  S
Zr956      O2295   2.396       .  S
Zr956      O2306   2.390       .  S
Zr956       O963   2.385       .  S
Zr957      O1653   2.437       .  S
Zr957      O1655   2.406       .  S
Zr957      O2296   2.379       .  S
Zr957      O2305   2.387       .  S
Zr957       O964   2.375       .  S
Zr958       O984   2.436       .  S
Zr958       O985   2.431       .  S
Zr958       O960   2.439       .  S
Zr958       O961   2.405       .  S
Zr958       O962   2.387       .  S
O959        H996   0.990       .  S
O960        H991   0.990       .  S
O960       H1005   0.990       .  S
O961      Zr3645   2.388   1_455  S
O962      Zr3644   2.390   1_455  S
O962        H988   0.965       .  S
O963      Zr2299   2.385       .  S
O963       Zr973   2.374       .  S
O964      Zr2299   2.374       .  S
O964       Zr973   2.372       .  S
O964        H989   0.965       .  S
C965       C1261   1.470   1_554  S
C965       O3633   1.286       .  A
O968      Zr3644   2.433   1_455  S
O968       H1004   0.990       .  S
O969      Zr3644   2.436   1_455  S
O969        C971   1.288       .  A
O970        C971   1.284       .  A
O972       Zr973   2.430       .  S
O972       H1001   0.990       .  S
Zr973       O976   2.435       .  S
Zr973       O977   2.440       .  S
Zr973       O978   2.431       .  S
O974      Zr2299   2.430       .  S
O974        C979   1.285       .  A
O975        H992   0.990       .  S
O975       H1007   0.990       .  S
O976        H993   0.990       .  S
O977        H997   0.990       .  S
O977       H1006   0.990       .  S
O978        C979   1.282       .  A
O980        H999   0.990       .  S
O980       H1003   0.990       .  S
O981      Zr2973   2.437   1_465  S
O981        H995   0.990       .  S
O981       H1002   0.990       .  S
O983      Zr2973   2.407   1_465  S
O983        C986   1.281       .  A
O984        H994   0.990       .  S
O985        H998   0.990       .  S
C1009      C1010   1.408       .  A
C1009      C1014   1.406       .  A
C1009      C1049   1.470       .  S
C1010      C1011   1.408       .  A
C1010      H1015   1.084       .  S
C1011      C1012   1.400       .  A
C1011      C1134   1.481       .  S
C1012      C1013   1.397       .  A
C1012      H1016   1.085       .  S
C1013      C1014   1.400       .  A
C1013      C1322   1.467       .  S
C1014      H1017   1.084       .  S
C1018      C1019   1.402       .  A
C1018      C1023   1.411       .  A
C1018      C1063   1.470       .  S
C1019      H1024   1.085       .  S
C1020      C1021   1.397       .  A
C1020      C1302   1.462       .  S
C1021      C1022   1.405       .  A
C1021      H1025   1.084       .  S
C1022      C1154   1.488       .  S
C1023      H1026   1.083       .  S
Zr1027     O1028   2.439       .  S
Zr1027     O1029   2.435       .  S
Zr1027     O1030   2.451       .  S
Zr1027     O1033   2.441       .  S
Zr1027     O2379   2.377       .  S
Zr1027     O2380   2.387       .  S
Zr1027     O1037   2.408       .  S
Zr1027     O1038   2.413       .  S
O1028      H1084   0.990       .  S
O1028      H1092   0.990       .  S
O1029      C2393   1.284       .  A
O1030      C1051   1.286       .  A
O1031     Zr1041   2.429       .  S
O1031      C1050   1.287       .  A
O1033      C1050   1.286       .  A
O1034     Zr1042   2.425       .  S
O1034      C1049   1.282       .  A
O1035     Zr3715   2.378   1_455  S
O1035     Zr3728   2.385   1_455  S
O1035     Zr1042   2.378       .  S
O1036     Zr3715   2.387   1_455  S
O1036     Zr3729   2.392   1_455  S
O1036     Zr1042   2.371       .  S
O1036      H1071   0.966       .  S
O1037     Zr1040   2.394       .  S
O1037     Zr1057   2.397       .  S
O1037      H1074   0.965       .  S
O1038     Zr1041   2.389       .  S
O1038     Zr1057   2.398       .  S
Zr1039     O1064   2.445       .  S
Zr1039     O3746   2.434   1_455  S
Zr1039     O1066   2.441       .  S
Zr1039     O1054   2.455       .  S
Zr1039     O1045   2.407       .  S
Zr1039     O1046   2.407       .  S
Zr1039     O3735   2.373   1_455  S
Zr1039     O3736   2.389   1_455  S
Zr1040     O1724   2.436   1_565  S
Zr1040     O1725   2.404   1_565  S
Zr1040     O2379   2.385       .  S
Zr1040     O2390   2.392       .  S
Zr1040     O1047   2.381       .  S
Zr1041     O1043   2.434       .  S
Zr1041     O2409   2.439       .  S
Zr1041     O2411   2.431       .  S
Zr1041     O2380   2.393       .  S
Zr1041     O2389   2.384       .  S
Zr1041     O1048   2.389       .  S
Zr1042     O1068   2.438       .  S
Zr1042     O1069   2.432       .  S
Zr1042     O1044   2.437       .  S
Zr1042     O1045   2.388       .  S
Zr1042     O1046   2.403       .  S
O1043      H1080   0.990       .  S
O1044      H1075   0.990       .  S
O1044      H1089   0.990       .  S
O1045     Zr3729   2.384   1_455  S
O1046     Zr3728   2.393   1_455  S
O1046      H1072   0.966       .  S
O1047     Zr2383   2.373       .  S
O1047     Zr1057   2.374       .  S
O1048     Zr2383   2.389       .  S
O1048     Zr1057   2.376       .  S
O1048      H1073   0.966       .  S
C1049      O3717   1.285       .  A
C1050      C1104   1.488       .  S
O1052     Zr3056   2.436   1_455  S
O1052      H1088   0.990       .  S
O1053     Zr3056   2.405   1_455  S
O1054      C1055   1.288       .  A
O1056     Zr1057   2.431       .  S
O1056      H1085   0.990       .  S
Zr1057     O1060   2.438       .  S
Zr1057     O1061   2.438       .  S
Zr1057     O1062   2.429       .  S
O1058     Zr2383   2.434       .  S
O1058      C1063   1.285       .  A
O1059      H1076   0.990       .  S
O1059      H1091   0.990       .  S
O1060      H1077   0.991       .  S
O1061      H1081   0.990       .  S
O1061      H1090   0.990       .  S
O1062      C1063   1.282       .  A
O1064      H1083   0.990       .  S
O1064      H1087   0.990       .  S
O1065     Zr3729   2.439   1_455  S
O1065      H1079   0.990       .  S
O1065      H1086   0.990       .  S
O1066      C1070   1.286       .  A
O1067     Zr3729   2.432   1_455  S
O1067      C1070   1.287       .  A
O1068      H1078   0.990       .  S
O1069      H1082   0.990       .  S
C1070      C1095   1.488       .  S
C1093      C1094   1.410       .  A
C1093      C1098   1.407       .  A
C1094      C1095   1.410       .  A
C1094      H1099   1.084       .  S
C1095      C1096   1.404       .  A
C1096      C1097   1.401       .  A
C1096      H1100   1.084       .  S
C1097      C1098   1.401       .  A
C1097      C1218   1.474       .  S
C1098      H1101   1.084       .  S
C1102      C1103   1.412       .  A
C1102      C1107   1.402       .  A
C1102      C1133   1.468       .  S
C1103      C1104   1.412       .  A
C1103      H1108   1.083       .  S
C1104      C1105   1.404       .  A
C1105      C1106   1.397       .  A
C1105      H1109   1.084       .  S
C1106      C1107   1.394       .  A
C1106      C1238   1.464       .  S
C1107      H1110   1.085       .  S
Zr1111     O1112   2.441       .  S
Zr1111     O1113   2.431       .  S
Zr1111     O1114   2.454       .  S
Zr1111     O1117   2.429       .  S
Zr1111     O1119   2.374       .  S
Zr1111     O1120   2.388       .  S
Zr1111     O1121   2.404       .  S
Zr1111     O1122   2.409       .  S
O1112      H1168   0.990       .  S
O1112      H1176   0.990       .  S
O1113      C1133   1.284       .  A
O1114      C1135   1.286       .  A
O1115     Zr1125   2.430       .  S
O1115      C1134   1.288       .  A
O1116     Zr1124   2.409       .  S
O1116      C1135   1.281       .  A
O1117      C1134   1.284       .  A
O1118     Zr1126   2.426       .  S
O1118      C1133   1.281       .  A
O1119     Zr1124   2.385       .  S
O1119     Zr1126   2.377       .  S
O1120     Zr1125   2.388       .  S
O1120     Zr1126   2.372       .  S
O1120      H1155   0.967       .  S
O1121     Zr1124   2.391       .  S
O1121     Zr1141   2.405       .  S
O1121      H1158   0.966       .  S
O1122     Zr1125   2.382       .  S
O1122     Zr1141   2.389       .  S
Zr1123     O1148   2.448       .  S
Zr1123     O1142   2.437       .  S
Zr1123     O1150   2.447       .  S
Zr1123     O1138   2.457       .  S
Zr1123     O1129   2.410       .  S
Zr1123     O1130   2.404       .  S
Zr1123     O1131   2.379       .  S
Zr1123     O1132   2.388       .  S
Zr1124     O1143   2.434       .  S
Zr1124     O1136   2.436       .  S
Zr1124     O1137   2.409       .  S
Zr1124     O1130   2.391       .  S
Zr1124     O1131   2.380       .  S
Zr1125     O1127   2.437       .  S
Zr1125     O1149   2.436       .  S
Zr1125     O1151   2.425       .  S
Zr1125     O1129   2.385       .  S
Zr1125     O1132   2.387       .  S
Zr1126     O1152   2.434       .  S
Zr1126     O1153   2.428       .  S
Zr1126     O1128   2.436       .  S
Zr1126     O1129   2.395       .  S
Zr1126     O1130   2.388       .  S
O1127      H1164   0.990       .  S
O1128      H1159   0.990       .  S
O1128      H1173   0.990       .  S
O1130      H1156   0.965       .  S
O1131     Zr1141   2.379       .  S
O1132     Zr1141   2.375       .  S
O1132      H1157   0.966       .  S
C1135      C1181   1.475       .  S
O1136      H1172   0.990       .  S
O1137      C1139   1.280       .  A
O1138      C1139   1.288       .  A
C1139      C1190   1.472       .  S
O1140     Zr1141   2.433       .  S
O1140      H1169   0.990       .  S
Zr1141     O1144   2.435       .  S
Zr1141     O1145   2.444       .  S
Zr1141     O1146   2.432       .  S
O1142      C1147   1.286       .  A
O1143      H1160   0.990       .  S
O1143      H1175   0.990       .  S
O1144      H1161   0.990       .  S
O1145      H1165   0.991       .  S
O1145      H1174   0.990       .  S
O1146      C1147   1.284       .  A
O1148      H1167   0.990       .  S
O1148      H1171   0.990       .  S
O1149      H1163   0.990       .  S
O1149      H1170   0.990       .  S
O1150      C1154   1.287       .  A
O1151      C1154   1.286       .  A
O1152      H1162   0.990       .  S
O1153      H1166   0.990       .  S
C1177      C1178   1.408       .  A
C1177      C1182   1.408       .  A
C1177      C1231   1.473       .  S
C1178      C1179   1.408       .  A
C1178      H1183   1.084       .  S
C1179      C1180   1.404       .  A
C1179      C1307   1.483       .  S
C1180      C1181   1.400       .  A
C1180      H1184   1.084       .  S
C1181      C1182   1.401       .  A
C1182      H1185   1.084       .  S
C1186      C1187   1.409       .  A
C1186      C1191   1.404       .  A
C1186      C1217   1.467       .  S
C1187      H1192   1.083       .  S
C1188      C1189   1.409       .  A
C1188      C1303   1.490       .  S
C1189      C1190   1.403       .  A
C1189      H1193   1.084       .  S
C1191      H1194   1.085       .  S
Zr1195     O1196   2.440       .  S
Zr1195     O1197   2.425       .  S
Zr1195     O1198   2.440       .  S
Zr1195     O1201   2.447       .  S
Zr1195     O1203   2.386       .  S
Zr1195     O1204   2.377       .  S
Zr1195     O1205   2.410       .  S
Zr1195     O1206   2.407       .  S
O1196      H1252   0.991       .  S
O1196      H1260   0.990       .  S
O1197      C1217   1.283       .  A
O1198      C1219   1.285       .  A
O1199     Zr1209   2.408       .  S
O1199      C1218   1.281       .  A
O1200     Zr1208   2.437       .  S
O1200      C1219   1.287       .  A
O1201      C1218   1.286       .  A
O1202     Zr1210   2.430       .  S
O1202      C1217   1.282       .  A
O1203     Zr1208   2.395       .  S
O1203     Zr1210   2.380       .  S
O1204     Zr1209   2.380       .  S
O1204     Zr1210   2.374       .  S
O1204      H1239   0.966       .  S
O1205     Zr1208   2.393       .  S
O1205     Zr1225   2.389       .  S
O1205      H1242   0.965       .  S
O1206     Zr1209   2.387       .  S
O1206     Zr1225   2.409       .  S
Zr1207     O1232   2.448       .  S
Zr1207     O1226   2.440       .  S
Zr1207     O1234   2.439       .  S
Zr1207     O1222   2.450       .  S
Zr1207     O1213   2.403       .  S
Zr1207     O1214   2.411       .  S
Zr1207     O1215   2.384       .  S
Zr1207     O1216   2.384       .  S
Zr1208     O1227   2.437       .  S
Zr1208     O1220   2.436       .  S
Zr1208     O1221   2.433       .  S
Zr1208     O1214   2.392       .  S
Zr1208     O1215   2.394       .  S
Zr1209     O1211   2.436       .  S
Zr1209     O1233   2.440       .  S
Zr1209     O1235   2.400       .  S
Zr1209     O1213   2.387       .  S
Zr1209     O1216   2.376       .  S
Zr1210     O1236   2.438       .  S
Zr1210     O1237   2.431       .  S
Zr1210     O1212   2.437       .  S
Zr1210     O1213   2.395       .  S
Zr1210     O1214   2.395       .  S
O1211      H1248   0.990       .  S
O1212      H1243   0.990       .  S
O1212      H1257   0.990       .  S
O1214      H1240   0.966       .  S
O1215     Zr1225   2.375       .  S
O1216     Zr1225   2.373       .  S
O1216      H1241   0.965       .  S
C1219      C1265   1.485       .  S
O1220      H1256   0.990       .  S
O1221      C1223   1.288       .  A
O1222      C1223   1.288       .  A
C1223      C1272   1.492       .  S
O1224     Zr1225   2.432       .  S
O1224      H1253   0.990       .  S
Zr1225     O1228   2.436       .  S
Zr1225     O1229   2.436       .  S
Zr1225     O1230   2.434       .  S
O1226      C1231   1.286       .  A
O1227      H1244   0.990       .  S
O1227      H1259   0.990       .  S
O1228      H1245   0.990       .  S
O1229      H1249   0.990       .  S
O1229      H1258   0.990       .  S
O1230      C1231   1.283       .  A
O1232      H1251   0.990       .  S
O1232      H1255   0.990       .  S
O1233      H1247   0.990       .  S
O1233      H1254   0.990       .  S
O1234      C1238   1.285       .  A
O1235      C1238   1.280       .  A
O1236      H1246   0.990       .  S
O1237      H1250   0.990       .  S
C1261      C1262   1.405       .  A
C1261      C1266   1.408       .  A
C1262      C1263   1.399       .  A
C1262      H1267   1.084       .  S
C1263      C1264   1.402       .  A
C1264      C1265   1.404       .  A
C1264      H1268   1.084       .  S
C1265      C1266   1.408       .  A
C1266      H1269   1.084       .  S
C1270      C1271   1.411       .  A
C1270      C1275   1.404       .  A
C1270      C1315   1.469       .  S
C1271      C1272   1.412       .  A
C1271      H1276   1.083       .  S
C1272      C1273   1.407       .  A
C1273      C1274   1.399       .  A
C1273      H1277   1.084       .  S
C1274      C1275   1.394       .  A
C1275      H1278   1.085       .  S
Zr1279     O1280   2.441       .  S
Zr1279     O1281   2.441       .  S
Zr1279     O1282   2.455       .  S
Zr1279     O1285   2.435       .  S
Zr1279     O2631   2.381       .  S
Zr1279     O2632   2.384       .  S
Zr1279     O1289   2.414       .  S
Zr1279     O1290   2.404       .  S
O1280      H1336   0.990       .  S
O1280      H1344   0.990       .  S
O1281      C2645   1.286       .  A
O1282      C1303   1.288       .  A
O1283      C1302   1.279       .  A
O1284     Zr1292   2.428       .  S
O1284      C1303   1.286       .  A
O1286     Zr1294   2.424       .  S
O1286      C1301   1.281       .  A
O1287     Zr3967   2.381   1_455  S
O1287     Zr3980   2.396   1_455  S
O1287     Zr1294   2.377       .  S
O1288     Zr3967   2.384   1_455  S
O1288     Zr3981   2.379   1_455  S
O1288     Zr1294   2.375       .  S
O1288      H1323   0.966       .  S
O1289     Zr1292   2.397       .  S
O1289     Zr1309   2.394       .  S
O1289      H1326   0.966       .  S
O1290     Zr1293   2.383       .  S
O1290     Zr1309   2.394       .  S
Zr1291     O1316   2.444       .  S
Zr1291     O3998   2.427   1_455  S
Zr1291     O1318   2.440       .  S
Zr1291     O1306   2.430       .  S
Zr1291     O1297   2.404       .  S
Zr1291     O1298   2.406       .  S
Zr1291     O3987   2.386   1_455  S
Zr1291     O3988   2.376   1_455  S
Zr1292     O1311   2.435       .  S
Zr1292     O2648   2.434       .  S
Zr1292     O2649   2.436       .  S
Zr1292     O2631   2.396       .  S
Zr1292     O2642   2.389       .  S
Zr1292     O1299   2.387       .  S
Zr1293     O1989   2.437       .  S
Zr1293     O1991   2.405       .  S
Zr1293     O2632   2.378       .  S
Zr1293     O2641   2.387       .  S
Zr1293     O1300   2.374       .  S
Zr1294     O1320   2.436       .  S
Zr1294     O1321   2.432       .  S
Zr1294     O1296   2.439       .  S
Zr1294     O1297   2.406       .  S
Zr1294     O1298   2.386       .  S
O1295      H1332   0.990       .  S
O1296      H1327   0.990       .  S
O1296      H1341   0.990       .  S
O1297     Zr3981   2.388   1_455  S
O1298     Zr3980   2.389   1_455  S
O1298      H1324   0.965       .  S
O1299     Zr2635   2.386       .  S
O1299     Zr1309   2.376       .  S
O1300     Zr2635   2.375       .  S
O1300     Zr1309   2.372       .  S
O1300      H1325   0.965       .  S
C1301      O3969   1.285       .  A
O1304     Zr3980   2.434   1_455  S
O1304      H1340   0.990       .  S
O1305     Zr3980   2.436   1_455  S
O1305      C1307   1.288       .  A
O1306      C1307   1.284       .  A
O1308     Zr1309   2.431       .  S
O1308      H1337   0.990       .  S
Zr1309     O1312   2.435       .  S
Zr1309     O1313   2.441       .  S
Zr1309     O1314   2.430       .  S
O1310     Zr2635   2.428       .  S
O1310      C1315   1.285       .  A
O1311      H1328   0.990       .  S
O1311      H1343   0.990       .  S
O1312      H1329   0.990       .  S
O1313      H1333   0.991       .  S
O1313      H1342   0.990       .  S
O1314      C1315   1.282       .  A
O1316      H1335   0.990       .  S
O1316      H1339   0.990       .  S
O1317     Zr3309   2.437   1_465  S
O1317      H1331   0.990       .  S
O1317      H1338   0.990       .  S
O1319     Zr3309   2.406   1_465  S
O1319      C1322   1.281       .  A
O1320      H1330   0.990       .  S
O1321      H1334   0.990       .  S
C1345      C1346   1.409       .  A
C1345      C1350   1.406       .  A
C1345      C1385   1.471       .  S
C1346      C1347   1.409       .  A
C1346      H1351   1.084       .  S
C1347      C1348   1.400       .  A
C1347      C1470   1.482       .  S
C1348      C1349   1.397       .  A
C1348      H1352   1.085       .  S
C1349      C1350   1.400       .  A
C1349      C1658   1.468       .  S
C1350      H1353   1.084       .  S
C1354      C1355   1.402       .  A
C1354      C1359   1.411       .  A
C1354      C1399   1.469       .  S
C1355      C1692   1.394       .  A
C1355      H1360   1.085       .  S
C1356      C1691   1.394   1_554  A
C1356      C1357   1.397       .  A
C1356      C1638   1.464       .  S
C1357      C1358   1.406       .  A
C1357      H1361   1.084       .  S
C1358      C1695   1.411   1_554  A
C1358      C1490   1.487       .  S
C1359      C1694   1.412       .  A
C1359      H1362   1.083       .  S
Zr1363     O1364   2.439       .  S
Zr1363     O1365   2.436       .  S
Zr1363     O1366   2.453       .  S
Zr1363     O1369   2.443       .  S
Zr1363     O2715   2.378       .  S
Zr1363     O2716   2.386       .  S
Zr1363     O1373   2.408       .  S
Zr1363     O1374   2.413       .  S
O1364      H1420   0.990       .  S
O1364      H1428   0.990       .  S
O1365      C2729   1.285       .  A
O1366      C1387   1.287       .  A
O1367     Zr1377   2.430       .  S
O1367      C1386   1.287       .  A
O1368     Zr2048   2.408   1_545  S
O1368      C2059   1.280   1_545  A
O1369      C1386   1.286       .  A
O1370     Zr1378   2.425       .  S
O1370      C1385   1.282       .  A
O1371     Zr1378   2.379       .  S
O1372     Zr1378   2.371       .  S
O1372      H1407   0.966       .  S
O1373     Zr1376   2.393       .  S
O1373     Zr1393   2.396       .  S
O1373      H1410   0.965       .  S
O1374     Zr1377   2.389       .  S
O1374     Zr1393   2.398       .  S
Zr1375     O1400   2.445       .  S
Zr1375     O1402   2.439       .  S
Zr1375     O1390   2.454       .  S
Zr1375     O1381   2.406       .  S
Zr1375     O1382   2.406       .  S
Zr1376     O2067   2.437       .  S
Zr1376     O3404   2.435       .  S
Zr1376     O2040   2.407       .  S
Zr1376     O3405   2.403       .  S
Zr1376     O2715   2.385       .  S
Zr1376     O2726   2.392       .  S
Zr1376     O1383   2.381       .  S
Zr1377     O1379   2.434       .  S
Zr1377     O2745   2.439       .  S
Zr1377     O2747   2.431       .  S
Zr1377     O2716   2.392       .  S
Zr1377     O2725   2.384       .  S
Zr1377     O1384   2.390       .  S
Zr1378     O1404   2.438       .  S
Zr1378     O1405   2.432       .  S
Zr1378     O1380   2.436       .  S
Zr1378     O1381   2.388       .  S
Zr1378     O1382   2.403       .  S
O1379      H1416   0.990       .  S
O1380      H1411   0.990       .  S
O1380      H1425   0.990       .  S
O1382      H1408   0.966       .  S
O1383     Zr2719   2.373       .  S
O1383     Zr1393   2.374       .  S
O1384     Zr2719   2.389       .  S
O1384     Zr1393   2.377       .  S
O1384      H1409   0.966       .  S
C1386      C1440   1.489       .  S
C1387      C2282   1.468       .  S
C1387      O2040   1.280       .  A
O1388      H1424   0.990       .  S
O1389      C2063   1.280   1_545  A
O1390      C1391   1.287       .  A
C1391      C2271   1.472       .  S
C1391      O2061   1.280       .  A
O1392     Zr1393   2.430       .  S
O1392      H1421   0.990       .  S
Zr1393     O1396   2.438       .  S
Zr1393     O1397   2.437       .  S
Zr1393     O1398   2.429       .  S
O1394     Zr2719   2.433       .  S
O1394      C1399   1.285       .  A
O1395     Zr2048   2.437   1_545  S
O1395      H1412   0.990       .  S
O1395      H1427   0.990       .  S
O1396      H1413   0.991       .  S
O1397      H1417   0.990       .  S
O1397      H1426   0.990       .  S
O1398      C1399   1.282       .  A
O1400      H1419   0.990       .  S
O1400      H1423   0.990       .  S
O1401      H1415   0.990       .  S
O1401      H1422   0.990       .  S
O1402      C1406   1.286       .  A
O1403      C1406   1.287       .  A
O1404      H1414   0.990       .  S
O1405      H1418   0.990       .  S
C1406      C1431   1.487       .  S
C1429      C1430   1.409       .  A
C1429      C1434   1.407       .  A
C1429      C1819   1.474       .  S
C1430      C1431   1.410       .  A
C1430      H1435   1.084       .  S
C1431      C1432   1.404       .  A
C1432      C1433   1.400       .  A
C1432      H1436   1.084       .  S
C1433      C1434   1.401       .  A
C1433      C1554   1.474       .  S
C1434      H1437   1.084       .  S
C1438      C1439   1.412       .  A
C1438      C1443   1.402       .  A
C1438      C1469   1.469       .  S
C1439      C1440   1.413       .  A
C1439      H1444   1.083       .  S
C1440      C1441   1.404       .  A
C1441      C1442   1.397       .  A
C1441      H1445   1.084       .  S
C1442      C1443   1.394       .  A
C1442      C1574   1.464       .  S
C1443      H1446   1.085       .  S
Zr1447     O1448   2.440       .  S
Zr1447     O1449   2.431       .  S
Zr1447     O1450   2.453       .  S
Zr1447     O1453   2.429       .  S
Zr1447     O1455   2.373       .  S
Zr1447     O1456   2.386       .  S
Zr1447     O1457   2.406       .  S
Zr1447     O1458   2.409       .  S
O1448      H1504   0.990       .  S
O1448      H1512   0.990       .  S
O1449      C1469   1.284       .  A
O1450      C1471   1.286       .  A
O1451     Zr1461   2.433       .  S
O1451      C1470   1.288       .  A
O1452     Zr1460   2.406       .  S
O1452      C1471   1.281       .  A
O1453      C1470   1.284       .  A
O1454     Zr1462   2.428       .  S
O1454      C1469   1.281       .  A
O1455     Zr1460   2.385       .  S
O1455     Zr1462   2.375       .  S
O1456     Zr1461   2.389       .  S
O1456     Zr1462   2.371       .  S
O1456      H1491   0.966       .  S
O1457     Zr1460   2.392       .  S
O1457     Zr1477   2.403       .  S
O1457      H1494   0.966       .  S
O1458     Zr1461   2.381       .  S
O1458     Zr1477   2.389       .  S
Zr1459     O1484   2.449       .  S
Zr1459     O1478   2.438       .  S
Zr1459     O1486   2.447       .  S
Zr1459     O1474   2.456       .  S
Zr1459     O1465   2.410       .  S
Zr1459     O1466   2.405       .  S
Zr1459     O1467   2.379       .  S
Zr1459     O1468   2.389       .  S
Zr1460     O1479   2.434       .  S
Zr1460     O1472   2.436       .  S
Zr1460     O1473   2.408       .  S
Zr1460     O1466   2.392       .  S
Zr1460     O1467   2.380       .  S
Zr1461     O1463   2.437       .  S
Zr1461     O1485   2.437       .  S
Zr1461     O1487   2.424       .  S
Zr1461     O1465   2.386       .  S
Zr1461     O1468   2.388       .  S
Zr1462     O1488   2.434       .  S
Zr1462     O1489   2.427       .  S
Zr1462     O1464   2.436       .  S
Zr1462     O1465   2.395       .  S
Zr1462     O1466   2.390       .  S
O1463      H1500   0.990       .  S
O1464      H1495   0.990       .  S
O1464      H1509   0.990       .  S
O1466      H1492   0.965       .  S
O1467     Zr1477   2.379       .  S
O1468     Zr1477   2.375       .  S
O1468      H1493   0.966       .  S
C1471      C1517   1.474       .  S
O1472      H1508   0.990       .  S
O1473      C1475   1.280       .  A
O1474      C1475   1.288       .  A
C1475      C1526   1.471       .  S
O1476     Zr1477   2.433       .  S
O1476      H1505   0.990       .  S
Zr1477     O1480   2.434       .  S
Zr1477     O1481   2.443       .  S
Zr1477     O1482   2.432       .  S
O1478      C1483   1.286       .  A
O1479      H1496   0.990       .  S
O1479      H1511   0.990       .  S
O1480      H1497   0.990       .  S
O1481      H1501   0.991       .  S
O1481      H1510   0.990       .  S
O1482      C1483   1.283       .  A
C1483      C1765   1.474   1_554  S
O1484      H1503   0.990       .  S
O1484      H1507   0.990       .  S
O1485      H1499   0.990       .  S
O1485      H1506   0.990       .  S
O1486      C1490   1.287       .  A
O1487      C1490   1.286       .  A
O1488      H1498   0.990       .  S
O1489      H1502   0.990       .  S
C1513      C1514   1.408       .  A
C1513      C1518   1.409       .  A
C1513      C1567   1.475       .  S
C1514      C1515   1.409       .  A
C1514      H1519   1.084       .  S
C1515      C1516   1.403       .  A
C1515      C1643   1.483       .  S
C1516      C1517   1.399       .  A
C1516      H1520   1.085       .  S
C1517      C1518   1.402       .  A
C1518      H1521   1.084       .  S
C1522      C1523   1.409       .  A
C1522      C1527   1.404       .  A
C1522      C1553   1.468       .  S
C1523      C1860   1.411       .  A
C1523      H1528   1.083       .  S
C1524      C1859   1.411   1_554  A
C1524      C1525   1.408       .  A
C1524      C1639   1.490       .  S
C1525      C1526   1.402       .  A
C1525      H1529   1.084       .  S
C1526      C1863   1.394   1_554  A
C1527      C1862   1.394       .  A
C1527      H1530   1.085       .  S
Zr1531     O1532   2.440       .  S
Zr1531     O1533   2.427       .  S
Zr1531     O1534   2.437       .  S
Zr1531     O1537   2.447       .  S
Zr1531     O1539   2.387       .  S
Zr1531     O1540   2.376       .  S
Zr1531     O1541   2.411       .  S
Zr1531     O1542   2.407       .  S
O1532      H1588   0.991       .  S
O1532      H1596   0.990       .  S
O1533      C1553   1.283       .  A
O1534      C1555   1.285       .  A
O1535     Zr1545   2.408       .  S
O1535      C1554   1.280       .  A
O1536     Zr1544   2.436       .  S
O1536      C1555   1.287       .  A
O1537      C1554   1.286       .  A
O1538     Zr1546   2.431       .  S
O1538      C1553   1.282       .  A
O1539     Zr1544   2.395       .  S
O1539     Zr1546   2.380       .  S
O1540     Zr1545   2.380       .  S
O1540     Zr1546   2.374       .  S
O1540      H1575   0.966       .  S
O1541     Zr1544   2.394       .  S
O1541     Zr1561   2.390       .  S
O1541      H1578   0.965       .  S
O1542     Zr1545   2.387       .  S
O1542     Zr1561   2.409       .  S
Zr1543     O1568   2.447       .  S
Zr1543     O1562   2.441       .  S
Zr1543     O1570   2.439       .  S
Zr1543     O1558   2.449       .  S
Zr1543     O1549   2.403       .  S
Zr1543     O1550   2.412       .  S
Zr1543     O1551   2.384       .  S
Zr1543     O1552   2.383       .  S
Zr1544     O1563   2.437       .  S
Zr1544     O1556   2.437       .  S
Zr1544     O1557   2.434       .  S
Zr1544     O1550   2.391       .  S
Zr1544     O1551   2.394       .  S
Zr1545     O1547   2.435       .  S
Zr1545     O1569   2.439       .  S
Zr1545     O1571   2.402       .  S
Zr1545     O1549   2.387       .  S
Zr1545     O1552   2.376       .  S
Zr1546     O1572   2.437       .  S
Zr1546     O1573   2.432       .  S
Zr1546     O1548   2.437       .  S
Zr1546     O1549   2.395       .  S
Zr1546     O1550   2.395       .  S
O1547      H1584   0.990       .  S
O1548      H1579   0.990       .  S
O1548      H1593   0.990       .  S
O1550      H1576   0.966       .  S
O1551     Zr1561   2.375       .  S
O1552     Zr1561   2.372       .  S
O1552      H1577   0.965       .  S
C1555      C1601   1.483       .  S
O1556      H1592   0.990       .  S
O1557      C1559   1.288       .  A
O1558      C1559   1.287       .  A
C1559      C1608   1.492       .  S
O1560     Zr1561   2.433       .  S
O1560      H1589   0.990       .  S
Zr1561     O1564   2.435       .  S
Zr1561     O1565   2.437       .  S
Zr1561     O1566   2.437       .  S
O1562      C1567   1.286       .  A
O1563      H1580   0.990       .  S
O1563      H1595   0.990       .  S
O1564      H1581   0.990       .  S
O1565      H1585   0.990       .  S
O1565      H1594   0.990       .  S
O1566      C1567   1.284       .  A
O1568      H1587   0.990       .  S
O1568      H1591   0.990       .  S
O1569      H1583   0.990       .  S
O1569      H1590   0.990       .  S
O1570      C1574   1.285       .  A
O1571      C1574   1.280       .  A
O1572      H1582   0.990       .  S
O1573      H1586   0.990       .  S
C1597      C1598   1.405       .  A
C1597      C1602   1.407       .  A
C1597      C1973   1.470       .  S
C1598      C1599   1.399       .  A
C1598      H1603   1.084       .  S
C1599      C1600   1.401       .  A
C1599      C2063   1.472   1_545  S
C1600      C1601   1.404       .  A
C1600      H1604   1.084       .  S
C1601      C1602   1.408       .  A
C1602      H1605   1.084       .  S
C1606      C1607   1.411       .  A
C1606      C1611   1.404       .  A
C1606      C1651   1.470       .  S
C1607      C1608   1.413       .  A
C1607      H1612   1.083       .  S
C1608      C1609   1.407       .  A
C1609      C1610   1.400       .  A
C1609      H1613   1.084       .  S
C1610      C1611   1.394       .  A
C1610      C2059   1.469   1_545  S
C1611      H1614   1.085       .  S
Zr1615     O1616   2.441       .  S
Zr1615     O1617   2.442       .  S
Zr1615     O1618   2.453       .  S
Zr1615     O1621   2.438       .  S
Zr1615     O2967   2.382       .  S
Zr1615     O2968   2.384       .  S
Zr1615     O1625   2.415       .  S
Zr1615     O1626   2.403       .  S
O1616      H1672   0.990       .  S
O1616      H1680   0.990       .  S
O1617      C2981   1.286       .  A
O1618      C1639   1.287       .  A
O1619     Zr2301   2.403       .  S
O1619      C1638   1.280       .  A
O1620     Zr1628   2.429       .  S
O1620      C1639   1.286       .  A
O1621      C2310   1.285   1_545  A
O1622     Zr1630   2.423       .  S
O1622      C1637   1.281       .  A
O1623     Zr1630   2.377       .  S
O1624     Zr1630   2.376       .  S
O1624      H1659   0.966       .  S
O1625     Zr1628   2.396       .  S
O1625     Zr1645   2.394       .  S
O1625      H1662   0.966       .  S
O1626     Zr1629   2.382       .  S
O1626     Zr1645   2.393       .  S
Zr1627     O1652   2.444       .  S
Zr1627     O1654   2.440       .  S
Zr1627     O1642   2.429       .  S
Zr1627     O1633   2.405       .  S
Zr1627     O1634   2.409       .  S
Zr1628     O1647   2.435       .  S
Zr1628     O2984   2.433       .  S
Zr1628     O2985   2.435       .  S
Zr1628     O2967   2.396       .  S
Zr1628     O2978   2.390       .  S
Zr1628     O1635   2.386       .  S
Zr1629     O2303   2.437   1_545  S
Zr1629     O3669   2.437   1_545  S
Zr1629     O2291   2.404   1_545  S
Zr1629     O3671   2.407   1_545  S
Zr1629     O2968   2.379       .  S
Zr1629     O2977   2.388       .  S
Zr1629     O1636   2.375       .  S
Zr1630     O1656   2.436       .  S
Zr1630     O1657   2.431       .  S
Zr1630     O1632   2.439       .  S
Zr1630     O1633   2.406       .  S
Zr1630     O1634   2.388       .  S
O1631     Zr2301   2.438       .  S
O1631      H1668   0.990       .  S
O1632      H1663   0.990       .  S
O1632      H1677   0.990       .  S
O1634      H1660   0.965       .  S
O1635     Zr2971   2.385       .  S
O1635     Zr1645   2.375       .  S
O1636     Zr2971   2.375       .  S
O1636     Zr1645   2.372       .  S
O1636      H1661   0.965       .  S
C1637      C1933   1.470   1_554  S
C1638      O2293   1.285       .  A
O1640      H1676   0.990       .  S
O1641      C1643   1.288       .  A
O1642      C1643   1.284       .  A
O1644     Zr1645   2.431       .  S
O1644      H1673   0.990       .  S
Zr1645     O1648   2.435       .  S
Zr1645     O1649   2.441       .  S
Zr1645     O1650   2.431       .  S
O1646     Zr2971   2.429       .  S
O1646      C1651   1.285       .  A
O1647      H1664   0.990       .  S
O1647      H1679   0.990       .  S
O1648      H1665   0.990       .  S
O1649      H1669   0.991       .  S
O1649      H1678   0.990       .  S
O1650      C1651   1.283       .  A
O1652      H1671   0.990       .  S
O1652      H1675   0.990       .  S
O1653      H1667   0.990       .  S
O1653      H1674   0.990       .  S
O1654      C2330   1.284   1_545  A
O1655      C1658   1.281       .  A
O1656      H1666   0.990       .  S
O1657      H1670   0.990       .  S
C1658      O2326   1.285       .  A
C1681      C1682   1.408       .  A
C1681      C1686   1.407       .  A
C1681      C1721   1.470       .  S
C1682      C1683   1.408       .  A
C1682      H1687   1.084       .  S
C1683      C1684   1.400       .  A
C1683      C1806   1.481       .  S
C1684      C1685   1.397       .  A
C1684      H1688   1.085       .  S
C1685      C1686   1.400       .  A
C1685      C1994   1.468       .  S
C1686      H1689   1.084       .  S
C1690      C1691   1.402       .  A
C1690      C1695   1.411       .  A
C1690      C1735   1.469       .  S
C1691      H1696   1.085       .  S
C1692      C1693   1.397       .  A
C1692      C1974   1.463       .  S
C1693      C1694   1.406       .  A
C1693      H1697   1.084       .  S
C1694      C1826   1.488       .  S
C1695      H1698   1.083       .  S
Zr1699     O1700   2.439       .  S
Zr1699     O1701   2.436       .  S
Zr1699     O1702   2.450       .  S
Zr1699     O1705   2.442       .  S
Zr1699     O3051   2.377       .  S
Zr1699     O3052   2.386       .  S
Zr1699     O1709   2.408       .  S
Zr1699     O1710   2.412       .  S
O1700      H1756   0.990       .  S
O1700      H1764   0.990       .  S
O1701      C3065   1.285       .  A
O1702      C1723   1.286       .  A
O1703     Zr1713   2.430       .  S
O1703      C1722   1.287       .  A
O1704     Zr2384   2.408   1_545  S
O1704      C2395   1.280   1_545  A
O1705      C1722   1.286       .  A
O1706     Zr1714   2.426       .  S
O1706      C1721   1.282       .  A
O1707     Zr1714   2.378       .  S
O1708     Zr1714   2.371       .  S
O1708      H1743   0.966       .  S
O1709     Zr1712   2.394       .  S
O1709     Zr1729   2.396       .  S
O1709      H1746   0.965       .  S
O1710     Zr1713   2.389       .  S
O1710     Zr1729   2.397       .  S
Zr1711     O1736   2.445       .  S
Zr1711     O1738   2.440       .  S
Zr1711     O1726   2.454       .  S
Zr1711     O1717   2.406       .  S
Zr1711     O1718   2.407       .  S
Zr1712     O2403   2.437       .  S
Zr1712     O3740   2.435       .  S
Zr1712     O2376   2.408       .  S
Zr1712     O3741   2.406       .  S
Zr1712     O3051   2.384       .  S
Zr1712     O3062   2.393       .  S
Zr1712     O1719   2.381       .  S
Zr1713     O1715   2.434       .  S
Zr1713     O3081   2.438       .  S
Zr1713     O3083   2.431       .  S
Zr1713     O3052   2.391       .  S
Zr1713     O3061   2.384       .  S
Zr1713     O1720   2.390       .  S
Zr1714     O1740   2.438       .  S
Zr1714     O1741   2.432       .  S
Zr1714     O1716   2.436       .  S
Zr1714     O1717   2.388       .  S
Zr1714     O1718   2.404       .  S
O1715      H1752   0.990       .  S
O1716      H1747   0.990       .  S
O1716      H1761   0.990       .  S
O1718      H1744   0.966       .  S
O1719     Zr3055   2.373       .  S
O1719     Zr1729   2.375       .  S
O1720     Zr3055   2.389       .  S
O1720     Zr1729   2.376       .  S
O1720      H1745   0.966       .  S
C1722      C1776   1.489       .  S
C1723      C2618   1.467       .  S
C1723      O2376   1.280       .  A
O1724      H1760   0.990       .  S
O1725      C2399   1.280   1_545  A
O1726      C1727   1.287       .  A
C1727      C2607   1.473       .  S
C1727      O2397   1.280       .  A
O1728     Zr1729   2.431       .  S
O1728      H1757   0.990       .  S
Zr1729     O1732   2.438       .  S
Zr1729     O1733   2.438       .  S
Zr1729     O1734   2.428       .  S
O1730     Zr3055   2.434       .  S
O1730      C1735   1.285       .  A
O1731     Zr2384   2.437   1_545  S
O1731      H1748   0.990       .  S
O1731      H1763   0.990       .  S
O1732      H1749   0.991       .  S
O1733      H1753   0.990       .  S
O1733      H1762   0.990       .  S
O1734      C1735   1.282       .  A
O1736      H1755   0.990       .  S
O1736      H1759   0.990       .  S
O1737      H1751   0.990       .  S
O1737      H1758   0.990       .  S
O1738      C1742   1.286       .  A
O1739      C1742   1.287       .  A
O1740      H1750   0.990       .  S
O1741      H1754   0.990       .  S
C1742      C1767   1.487       .  S
C1765      C1766   1.409       .  A
C1765      C1770   1.407       .  A
C1766      C1767   1.410       .  A
C1766      H1771   1.084       .  S
C1767      C1768   1.403       .  A
C1768      C1769   1.400       .  A
C1768      H1772   1.084       .  S
C1769      C1770   1.401       .  A
C1769      C1890   1.473       .  S
C1770      H1773   1.084       .  S
C1774      C1775   1.412       .  A
C1774      C1779   1.401       .  A
C1774      C1805   1.468       .  S
C1775      C1776   1.412       .  A
C1775      H1780   1.083       .  S
C1776      C1777   1.404       .  A
C1777      C1778   1.397       .  A
C1777      H1781   1.084       .  S
C1778      C1779   1.393       .  A
C1778      C1910   1.463       .  S
C1779      H1782   1.085       .  S
Zr1783     O1784   2.441       .  S
Zr1783     O1785   2.430       .  S
Zr1783     O1786   2.455       .  S
Zr1783     O1789   2.428       .  S
Zr1783     O1791   2.374       .  S
Zr1783     O1792   2.388       .  S
Zr1783     O1793   2.404       .  S
Zr1783     O1794   2.409       .  S
O1784      H1840   0.990       .  S
O1784      H1848   0.990       .  S
O1785      C1805   1.284       .  A
O1786      C1807   1.287       .  A
O1787     Zr1797   2.431       .  S
O1787      C1806   1.288       .  A
O1788     Zr1796   2.408       .  S
O1788      C1807   1.281       .  A
O1789      C1806   1.284       .  A
O1790     Zr1798   2.426       .  S
O1790      C1805   1.281       .  A
O1791     Zr1796   2.385       .  S
O1791     Zr1798   2.377       .  S
O1792     Zr1797   2.389       .  S
O1792     Zr1798   2.371       .  S
O1792      H1827   0.967       .  S
O1793     Zr1796   2.390       .  S
O1793     Zr1813   2.406       .  S
O1793      H1830   0.966       .  S
O1794     Zr1797   2.382       .  S
O1794     Zr1813   2.388       .  S
Zr1795     O1820   2.448       .  S
Zr1795     O1814   2.438       .  S
Zr1795     O1822   2.446       .  S
Zr1795     O1810   2.456       .  S
Zr1795     O1801   2.410       .  S
Zr1795     O1802   2.405       .  S
Zr1795     O1803   2.379       .  S
Zr1795     O1804   2.388       .  S
Zr1796     O1815   2.434       .  S
Zr1796     O1808   2.435       .  S
Zr1796     O1809   2.407       .  S
Zr1796     O1802   2.392       .  S
Zr1796     O1803   2.380       .  S
Zr1797     O1799   2.436       .  S
Zr1797     O1821   2.436       .  S
Zr1797     O1823   2.426       .  S
Zr1797     O1801   2.384       .  S
Zr1797     O1804   2.388       .  S
Zr1798     O1824   2.435       .  S
Zr1798     O1825   2.427       .  S
Zr1798     O1800   2.436       .  S
Zr1798     O1801   2.394       .  S
Zr1798     O1802   2.390       .  S
O1799      H1836   0.990       .  S
O1800      H1831   0.991       .  S
O1800      H1845   0.990       .  S
O1802      H1828   0.965       .  S
O1803     Zr1813   2.379       .  S
O1804     Zr1813   2.374       .  S
O1804      H1829   0.966       .  S
C1807      C1853   1.475       .  S
O1808      H1844   0.990       .  S
O1809      C1811   1.280       .  A
O1810      C1811   1.288       .  A
C1811      C1862   1.471       .  S
O1812     Zr1813   2.433       .  S
O1812      H1841   0.990       .  S
Zr1813     O1816   2.435       .  S
Zr1813     O1817   2.444       .  S
Zr1813     O1818   2.433       .  S
O1814      C1819   1.286       .  A
O1815      H1832   0.990       .  S
O1815      H1847   0.990       .  S
O1816      H1833   0.990       .  S
O1817      H1837   0.990       .  S
O1817      H1846   0.990       .  S
O1818      C1819   1.284       .  A
O1820      H1839   0.990       .  S
O1820      H1843   0.990       .  S
O1821      H1835   0.990       .  S
O1821      H1842   0.990       .  S
O1822      C1826   1.286       .  A
O1823      C1826   1.286       .  A
O1824      H1834   0.990       .  S
O1825      H1838   0.990       .  S
C1849      C1850   1.407       .  A
C1849      C1854   1.409       .  A
C1849      C1903   1.473       .  S
C1850      C1851   1.408       .  A
C1850      H1855   1.084       .  S
C1851      C1852   1.404       .  A
C1851      C1979   1.482       .  S
C1852      C1853   1.400       .  A
C1852      H1856   1.084       .  S
C1853      C1854   1.401       .  A
C1854      H1857   1.084       .  S
C1858      C1859   1.409       .  A
C1858      C1863   1.403       .  A
C1858      C1889   1.467       .  S
C1859      H1864   1.083       .  S
C1860      C1861   1.408       .  A
C1860      C1975   1.490       .  S
C1861      C1862   1.402       .  A
C1861      H1865   1.084       .  S
C1863      H1866   1.085       .  S
Zr1867     O1868   2.440       .  S
Zr1867     O1869   2.425       .  S
Zr1867     O1870   2.439       .  S
Zr1867     O1873   2.447       .  S
Zr1867     O1875   2.385       .  S
Zr1867     O1876   2.377       .  S
Zr1867     O1877   2.410       .  S
Zr1867     O1878   2.406       .  S
O1868      H1924   0.991       .  S
O1868      H1932   0.990       .  S
O1869      C1889   1.283       .  A
O1870      C1891   1.285       .  A
O1871     Zr1881   2.406       .  S
O1871      C1890   1.280       .  A
O1872     Zr1880   2.437       .  S
O1872      C1891   1.287       .  A
O1873      C1890   1.286       .  A
O1874     Zr1882   2.429       .  S
O1874      C1889   1.282       .  A
O1875     Zr1880   2.394       .  S
O1875     Zr1882   2.380       .  S
O1876     Zr1881   2.380       .  S
O1876     Zr1882   2.374       .  S
O1876      H1911   0.966       .  S
O1877     Zr1880   2.393       .  S
O1877     Zr1897   2.389       .  S
O1877      H1914   0.965       .  S
O1878     Zr1881   2.387       .  S
O1878     Zr1897   2.408       .  S
Zr1879     O1904   2.448       .  S
Zr1879     O1898   2.438       .  S
Zr1879     O1906   2.438       .  S
Zr1879     O1894   2.448       .  S
Zr1879     O1885   2.403       .  S
Zr1879     O1886   2.410       .  S
Zr1879     O1887   2.384       .  S
Zr1879     O1888   2.384       .  S
Zr1880     O1899   2.437       .  S
Zr1880     O1892   2.436       .  S
Zr1880     O1893   2.433       .  S
Zr1880     O1886   2.392       .  S
Zr1880     O1887   2.394       .  S
Zr1881     O1883   2.436       .  S
Zr1881     O1905   2.440       .  S
Zr1881     O1907   2.399       .  S
Zr1881     O1885   2.387       .  S
Zr1881     O1888   2.377       .  S
Zr1882     O1908   2.438       .  S
Zr1882     O1909   2.432       .  S
Zr1882     O1884   2.437       .  S
Zr1882     O1885   2.394       .  S
Zr1882     O1886   2.394       .  S
O1883      H1920   0.990       .  S
O1884      H1915   0.990       .  S
O1884      H1929   0.990       .  S
O1886      H1912   0.966       .  S
O1887     Zr1897   2.375       .  S
O1888     Zr1897   2.373       .  S
O1888      H1913   0.966       .  S
C1891      C1937   1.484       .  S
O1892      H1928   0.990       .  S
O1893      C1895   1.287       .  A
O1894      C1895   1.287       .  A
C1895      C1944   1.491       .  S
O1896     Zr1897   2.432       .  S
O1896      H1925   0.990       .  S
Zr1897     O1900   2.435       .  S
Zr1897     O1901   2.436       .  S
Zr1897     O1902   2.435       .  S
O1898      C1903   1.285       .  A
O1899      H1916   0.990       .  S
O1899      H1931   0.990       .  S
O1900      H1917   0.990       .  S
O1901      H1921   0.990       .  S
O1901      H1930   0.990       .  S
O1902      C1903   1.284       .  A
O1904      H1923   0.990       .  S
O1904      H1927   0.990       .  S
O1905      H1919   0.990       .  S
O1905      H1926   0.990       .  S
O1906      C1910   1.284       .  A
O1907      C1910   1.279       .  A
O1908      H1918   0.990       .  S
O1909      H1922   0.990       .  S
C1933      C1934   1.406       .  A
C1933      C1938   1.408       .  A
C1934      C1935   1.399       .  A
C1934      H1939   1.084       .  S
C1935      C1936   1.402       .  A
C1935      C2399   1.473   1_545  S
C1936      C1937   1.404       .  A
C1936      H1940   1.084       .  S
C1937      C1938   1.408       .  A
C1938      H1941   1.084       .  S
C1942      C1943   1.411       .  A
C1942      C1947   1.404       .  A
C1942      C1987   1.469       .  S
C1943      C1944   1.412       .  A
C1943      H1948   1.083       .  S
C1944      C1945   1.407       .  A
C1945      C1946   1.399       .  A
C1945      H1949   1.084       .  S
C1946      C1947   1.394       .  A
C1946      C2395   1.468   1_545  S
C1947      H1950   1.085       .  S
Zr1951     O1952   2.441       .  S
Zr1951     O1953   2.441       .  S
Zr1951     O1954   2.454       .  S
Zr1951     O1957   2.434       .  S
Zr1951     O3303   2.381       .  S
Zr1951     O3304   2.385       .  S
Zr1951     O1961   2.414       .  S
Zr1951     O1962   2.404       .  S
O1952      H2008   0.990       .  S
O1952      H2016   0.990       .  S
O1953      C3317   1.286       .  A
O1954      C1975   1.288       .  A
O1955     Zr2637   2.402       .  S
O1955      C1974   1.279       .  A
O1956     Zr1964   2.428       .  S
O1956      C1975   1.285       .  A
O1957      C2646   1.284   1_545  A
O1958     Zr1966   2.424       .  S
O1958      C1973   1.281       .  A
O1959     Zr1966   2.377       .  S
O1960     Zr1966   2.375       .  S
O1960      H1995   0.966       .  S
O1961     Zr1964   2.396       .  S
O1961     Zr1981   2.394       .  S
O1961      H1998   0.966       .  S
O1962     Zr1965   2.382       .  S
O1962     Zr1981   2.394       .  S
Zr1963     O1988   2.444       .  S
Zr1963     O1990   2.438       .  S
Zr1963     O1978   2.429       .  S
Zr1963     O1969   2.405       .  S
Zr1963     O1970   2.407       .  S
Zr1964     O1983   2.435       .  S
Zr1964     O3320   2.434       .  S
Zr1964     O3321   2.435       .  S
Zr1964     O3303   2.395       .  S
Zr1964     O3314   2.389       .  S
Zr1964     O1971   2.387       .  S
Zr1965     O2639   2.438   1_545  S
Zr1965     O4005   2.437   1_545  S
Zr1965     O2627   2.403   1_545  S
Zr1965     O4007   2.406   1_545  S
Zr1965     O3304   2.378       .  S
Zr1965     O3313   2.387       .  S
Zr1965     O1972   2.374       .  S
Zr1966     O1992   2.437       .  S
Zr1966     O1993   2.431       .  S
Zr1966     O1968   2.439       .  S
Zr1966     O1969   2.406       .  S
Zr1966     O1970   2.387       .  S
O1967     Zr2637   2.438       .  S
O1967      H2004   0.990       .  S
O1968      H1999   0.990       .  S
O1968      H2013   0.990       .  S
O1970      H1996   0.965       .  S
O1971     Zr3307   2.386       .  S
O1971     Zr1981   2.376       .  S
O1972     Zr3307   2.375       .  S
O1972     Zr1981   2.372       .  S
O1972      H1997   0.965       .  S
C1974      O2629   1.284       .  A
O1976      H2012   0.990       .  S
O1977      C1979   1.288       .  A
O1978      C1979   1.284       .  A
O1980     Zr1981   2.431       .  S
O1980      H2009   0.990       .  S
Zr1981     O1984   2.435       .  S
Zr1981     O1985   2.441       .  S
Zr1981     O1986   2.430       .  S
O1982     Zr3307   2.428       .  S
O1982      C1987   1.284       .  A
O1983      H2000   0.990       .  S
O1983      H2015   0.990       .  S
O1984      H2001   0.990       .  S
O1985      H2005   0.991       .  S
O1985      H2014   0.990       .  S
O1986      C1987   1.282       .  A
O1988      H2007   0.990       .  S
O1988      H2011   0.990       .  S
O1989      H2003   0.990       .  S
O1989      H2010   0.990       .  S
O1990      C2666   1.284   1_545  A
O1991      C1994   1.281       .  A
O1992      H2002   0.990       .  S
O1993      H2006   0.990       .  S
C1994      O2662   1.284       .  A
C2017      C2018   1.409       .  A
C2017      C2022   1.407       .  A
C2017      C2057   1.472       .  S
C2018      C2019   1.409       .  A
C2018      H2023   1.084       .  S
C2019      C2020   1.400       .  A
C2019      C2142   1.482       .  S
C2020      C2021   1.397       .  A
C2020      H2024   1.085       .  S
C2021      C2022   1.400       .  A
C2021      C2330   1.468       .  S
C2022      H2025   1.084       .  S
C2026      C2027   1.402       .  A
C2026      C2031   1.411       .  A
C2026      C2071   1.469       .  S
C2027      C2364   1.394       .  A
C2027      H2032   1.085       .  S
C2028      C2363   1.394   1_554  A
C2028      C2029   1.397       .  A
C2028      C2310   1.465       .  S
C2029      C2030   1.406       .  A
C2029      H2033   1.084       .  S
C2030      C2367   1.411   1_554  A
C2030      C2162   1.488       .  S
C2031      C2366   1.412       .  A
C2031      H2034   1.083       .  S
Zr2035     O2036   2.439       .  S
Zr2035     O2037   2.437       .  S
Zr2035     O2038   2.453       .  S
Zr2035     O2041   2.442       .  S
Zr2035     O3387   2.378       .  S
Zr2035     O3388   2.387       .  S
Zr2035     O2045   2.407       .  S
Zr2035     O2046   2.414       .  S
O2036      H2092   0.990       .  S
O2036      H2100   0.990       .  S
O2037      C3401   1.285       .  A
O2038      C2059   1.287       .  A
O2039     Zr2049   2.430       .  S
O2039      C2058   1.287       .  A
O2041      C2058   1.286       .  A
O2042     Zr2050   2.426       .  S
O2042      C2057   1.282       .  A
O2043     Zr2050   2.379       .  S
O2044     Zr2050   2.370       .  S
O2044      H2079   0.966       .  S
O2045     Zr2048   2.393       .  S
O2045     Zr2065   2.396       .  S
O2045      H2082   0.965       .  S
O2046     Zr2049   2.389       .  S
O2046     Zr2065   2.397       .  S
Zr2047     O2072   2.444       .  S
Zr2047     O2074   2.439       .  S
Zr2047     O2062   2.452       .  S
Zr2047     O2053   2.407       .  S
Zr2047     O2054   2.407       .  S
Zr2048     O2732   2.435   1_565  S
Zr2048     O2733   2.405   1_565  S
Zr2048     O3387   2.385       .  S
Zr2048     O3398   2.392       .  S
Zr2048     O2055   2.381       .  S
Zr2049     O2051   2.435       .  S
Zr2049     O3417   2.439       .  S
Zr2049     O3419   2.430       .  S
Zr2049     O3388   2.391       .  S
Zr2049     O3397   2.384       .  S
Zr2049     O2056   2.389       .  S
Zr2050     O2076   2.438       .  S
Zr2050     O2077   2.432       .  S
Zr2050     O2052   2.436       .  S
Zr2050     O2053   2.389       .  S
Zr2050     O2054   2.403       .  S
O2051      H2088   0.990       .  S
O2052      H2083   0.990       .  S
O2052      H2097   0.990       .  S
O2054      H2080   0.966       .  S
O2055     Zr3391   2.373       .  S
O2055     Zr2065   2.374       .  S
O2056     Zr3391   2.389       .  S
O2056     Zr2065   2.376       .  S
O2056      H2081   0.966       .  S
C2058      C2112   1.489       .  S
O2060      H2096   0.990       .  S
O2062      C2063   1.287       .  A
O2064     Zr2065   2.430       .  S
O2064      H2093   0.990       .  S
Zr2065     O2068   2.437       .  S
Zr2065     O2069   2.438       .  S
Zr2065     O2070   2.428       .  S
O2066     Zr3391   2.434       .  S
O2066      C2071   1.285       .  A
O2067      H2084   0.990       .  S
O2067      H2099   0.990       .  S
O2068      H2085   0.991       .  S
O2069      H2089   0.990       .  S
O2069      H2098   0.990       .  S
O2070      C2071   1.281       .  A
O2072      H2091   0.990       .  S
O2072      H2095   0.990       .  S
O2073      H2087   0.990       .  S
O2073      H2094   0.990       .  S
O2074      C2078   1.286       .  A
O2075      C2078   1.287       .  A
O2076      H2086   0.990       .  S
O2077      H2090   0.990       .  S
C2078      C2103   1.487       .  S
C2101      C2102   1.409       .  A
C2101      C2106   1.408       .  A
C2101      C2491   1.473       .  S
C2102      C2103   1.409       .  A
C2102      H2107   1.084       .  S
C2103      C2104   1.404       .  A
C2104      C2105   1.400       .  A
C2104      H2108   1.084       .  S
C2105      C2106   1.401       .  A
C2105      C2226   1.475       .  S
C2106      H2109   1.084       .  S
C2110      C2111   1.412       .  A
C2110      C2115   1.402       .  A
C2110      C2141   1.470       .  S
C2111      C2112   1.413       .  A
C2111      H2116   1.083       .  S
C2112      C2113   1.404       .  A
C2113      C2114   1.397       .  A
C2113      H2117   1.084       .  S
C2114      C2115   1.394       .  A
C2114      C2246   1.464       .  S
C2115      H2118   1.085       .  S
Zr2119     O2120   2.440       .  S
Zr2119     O2121   2.432       .  S
Zr2119     O2122   2.454       .  S
Zr2119     O2125   2.429       .  S
Zr2119     O2127   2.373       .  S
Zr2119     O2128   2.387       .  S
Zr2119     O2129   2.406       .  S
Zr2119     O2130   2.409       .  S
O2120      H2176   0.990       .  S
O2120      H2184   0.990       .  S
O2121      C2141   1.284       .  A
O2122      C2143   1.286       .  A
O2123     Zr2133   2.432       .  S
O2123      C2142   1.288       .  A
O2124     Zr2132   2.406       .  S
O2124      C2143   1.281       .  A
O2125      C2142   1.284       .  A
O2126     Zr2134   2.428       .  S
O2126      C2141   1.281       .  A
O2127     Zr2132   2.385       .  S
O2127     Zr2134   2.376       .  S
O2128     Zr2133   2.389       .  S
O2128     Zr2134   2.371       .  S
O2128      H2163   0.967       .  S
O2129     Zr2132   2.392       .  S
O2129     Zr2149   2.404       .  S
O2129      H2166   0.966       .  S
O2130     Zr2133   2.381       .  S
O2130     Zr2149   2.389       .  S
Zr2131     O2156   2.448       .  S
Zr2131     O2150   2.437       .  S
Zr2131     O2158   2.448       .  S
Zr2131     O2146   2.457       .  S
Zr2131     O2137   2.410       .  S
Zr2131     O2138   2.404       .  S
Zr2131     O2139   2.379       .  S
Zr2131     O2140   2.390       .  S
Zr2132     O2151   2.434       .  S
Zr2132     O2144   2.435       .  S
Zr2132     O2145   2.408       .  S
Zr2132     O2138   2.392       .  S
Zr2132     O2139   2.380       .  S
Zr2133     O2135   2.437       .  S
Zr2133     O2157   2.437       .  S
Zr2133     O2159   2.425       .  S
Zr2133     O2137   2.386       .  S
Zr2133     O2140   2.389       .  S
Zr2134     O2160   2.434       .  S
Zr2134     O2161   2.427       .  S
Zr2134     O2136   2.436       .  S
Zr2134     O2137   2.396       .  S
Zr2134     O2138   2.390       .  S
O2135      H2172   0.990       .  S
O2136      H2167   0.990       .  S
O2136      H2181   0.990       .  S
O2138      H2164   0.965       .  S
O2139     Zr2149   2.379       .  S
O2140     Zr2149   2.375       .  S
O2140      H2165   0.966       .  S
C2143      C2189   1.474       .  S
O2144      H2180   0.990       .  S
O2145      C2147   1.280       .  A
O2146      C2147   1.288       .  A
C2147      C2198   1.471       .  S
O2148     Zr2149   2.433       .  S
O2148      H2177   0.990       .  S
Zr2149     O2152   2.435       .  S
Zr2149     O2153   2.443       .  S
Zr2149     O2154   2.433       .  S
O2150      C2155   1.286       .  A
O2151      H2168   0.990       .  S
O2151      H2183   0.990       .  S
O2152      H2169   0.990       .  S
O2153      H2173   0.991       .  S
O2153      H2182   0.990       .  S
O2154      C2155   1.284       .  A
C2155      C2437   1.473   1_554  S
O2156      H2175   0.990       .  S
O2156      H2179   0.990       .  S
O2157      H2171   0.990       .  S
O2157      H2178   0.990       .  S
O2158      C2162   1.287       .  A
O2159      C2162   1.286       .  A
O2160      H2170   0.990       .  S
O2161      H2174   0.990       .  S
C2185      C2186   1.408       .  A
C2185      C2190   1.409       .  A
C2185      C2239   1.476       .  S
C2186      C2187   1.409       .  A
C2186      H2191   1.084       .  S
C2187      C2188   1.403       .  A
C2187      C2315   1.483       .  S
C2188      C2189   1.399       .  A
C2188      H2192   1.085       .  S
C2189      C2190   1.402       .  A
C2190      H2193   1.084       .  S
C2194      C2195   1.409       .  A
C2194      C2199   1.404       .  A
C2194      C2225   1.467       .  S
C2195      C2532   1.410       .  A
C2195      H2200   1.083       .  S
C2196      C2531   1.411   1_554  A
C2196      C2197   1.408       .  A
C2196      C2311   1.490       .  S
C2197      C2198   1.402       .  A
C2197      H2201   1.084       .  S
C2198      C2535   1.394   1_554  A
C2199      C2534   1.394       .  A
C2199      H2202   1.085       .  S
Zr2203     O2204   2.440       .  S
Zr2203     O2205   2.426       .  S
Zr2203     O2206   2.438       .  S
Zr2203     O2209   2.449       .  S
Zr2203     O2211   2.387       .  S
Zr2203     O2212   2.376       .  S
Zr2203     O2213   2.412       .  S
Zr2203     O2214   2.406       .  S
O2204      H2260   0.991       .  S
O2204      H2268   0.990       .  S
O2205      C2225   1.283       .  A
O2206      C2227   1.285       .  A
O2207     Zr2217   2.407       .  S
O2207      C2226   1.280       .  A
O2208     Zr2216   2.435       .  S
O2208      C2227   1.286       .  A
O2209      C2226   1.286       .  A
O2210     Zr2218   2.430       .  S
O2210      C2225   1.282       .  A
O2211     Zr2216   2.394       .  S
O2211     Zr2218   2.380       .  S
O2212     Zr2217   2.379       .  S
O2212     Zr2218   2.374       .  S
O2212      H2247   0.966       .  S
O2213     Zr2216   2.394       .  S
O2213     Zr2233   2.390       .  S
O2213      H2250   0.965       .  S
O2214     Zr2217   2.386       .  S
O2214     Zr2233   2.409       .  S
Zr2215     O2240   2.447       .  S
Zr2215     O2234   2.441       .  S
Zr2215     O2242   2.438       .  S
Zr2215     O2230   2.449       .  S
Zr2215     O2221   2.403       .  S
Zr2215     O2222   2.411       .  S
Zr2215     O2223   2.383       .  S
Zr2215     O2224   2.383       .  S
Zr2216     O2235   2.437       .  S
Zr2216     O2228   2.436       .  S
Zr2216     O2229   2.434       .  S
Zr2216     O2222   2.391       .  S
Zr2216     O2223   2.394       .  S
Zr2217     O2219   2.434       .  S
Zr2217     O2241   2.439       .  S
Zr2217     O2243   2.400       .  S
Zr2217     O2221   2.386       .  S
Zr2217     O2224   2.376       .  S
Zr2218     O2244   2.437       .  S
Zr2218     O2245   2.432       .  S
Zr2218     O2220   2.437       .  S
Zr2218     O2221   2.394       .  S
Zr2218     O2222   2.395       .  S
O2219      H2256   0.990       .  S
O2220      H2251   0.990       .  S
O2220      H2265   0.990       .  S
O2222      H2248   0.966       .  S
O2223     Zr2233   2.375       .  S
O2224     Zr2233   2.372       .  S
O2224      H2249   0.965       .  S
C2227      C2273   1.483       .  S
O2228      H2264   0.990       .  S
O2229      C2231   1.288       .  A
O2230      C2231   1.287       .  A
C2231      C2280   1.492       .  S
O2232     Zr2233   2.432       .  S
O2232      H2261   0.990       .  S
Zr2233     O2236   2.435       .  S
Zr2233     O2237   2.437       .  S
Zr2233     O2238   2.438       .  S
O2234      C2239   1.286       .  A
O2235      H2252   0.990       .  S
O2235      H2267   0.990       .  S
O2236      H2253   0.990       .  S
O2237      H2257   0.990       .  S
O2237      H2266   0.990       .  S
O2238      C2239   1.284       .  A
O2240      H2259   0.990       .  S
O2240      H2263   0.990       .  S
O2241      H2255   0.990       .  S
O2241      H2262   0.990       .  S
O2242      C2246   1.284       .  A
O2243      C2246   1.280       .  A
O2244      H2254   0.990       .  S
O2245      H2258   0.990       .  S
C2269      C2270   1.406       .  A
C2269      C2274   1.407       .  A
C2269      C2645   1.470       .  S
C2270      C2271   1.399       .  A
C2270      H2275   1.084       .  S
C2271      C2272   1.401       .  A
C2272      C2273   1.404       .  A
C2272      H2276   1.084       .  S
C2273      C2274   1.407       .  A
C2274      H2277   1.084       .  S
C2278      C2279   1.412       .  A
C2278      C2283   1.404       .  A
C2278      C2323   1.470       .  S
C2279      C2280   1.413       .  A
C2279      H2284   1.083       .  S
C2280      C2281   1.407       .  A
C2281      C2282   1.399       .  A
C2281      H2285   1.084       .  S
C2282      C2283   1.394       .  A
C2283      H2286   1.085       .  S
Zr2287     O2288   2.441       .  S
Zr2287     O2289   2.441       .  S
Zr2287     O2290   2.454       .  S
Zr2287     O2293   2.437       .  S
Zr2287     O3639   2.382       .  S
Zr2287     O3640   2.384       .  S
Zr2287     O2297   2.414       .  S
Zr2287     O2298   2.403       .  S
O2288      H2344   0.990       .  S
O2288      H2352   0.990       .  S
O2289      C3653   1.286       .  A
O2290      C2311   1.288       .  A
O2291      C2310   1.280       .  A
O2292     Zr2300   2.428       .  S
O2292      C2311   1.286       .  A
O2294     Zr2302   2.423       .  S
O2294      C2309   1.281       .  A
O2295     Zr2302   2.377       .  S
O2296     Zr2302   2.376       .  S
O2296      H2331   0.966       .  S
O2297     Zr2300   2.396       .  S
O2297     Zr2317   2.394       .  S
O2297      H2334   0.966       .  S
O2298     Zr2301   2.382       .  S
O2298     Zr2317   2.394       .  S
Zr2299     O2324   2.443       .  S
Zr2299     O2326   2.441       .  S
Zr2299     O2314   2.428       .  S
Zr2299     O2305   2.404       .  S
Zr2299     O2306   2.409       .  S
Zr2300     O2319   2.435       .  S
Zr2300     O3656   2.433       .  S
Zr2300     O3657   2.436       .  S
Zr2300     O3639   2.396       .  S
Zr2300     O3650   2.390       .  S
Zr2300     O2307   2.385       .  S
Zr2301     O2997   2.437       .  S
Zr2301     O2999   2.406       .  S
Zr2301     O3640   2.379       .  S
Zr2301     O3649   2.387       .  S
Zr2301     O2308   2.375       .  S
Zr2302     O2328   2.436       .  S
Zr2302     O2329   2.431       .  S
Zr2302     O2304   2.439       .  S
Zr2302     O2305   2.405       .  S
Zr2302     O2306   2.387       .  S
O2303      H2340   0.990       .  S
O2304      H2335   0.990       .  S
O2304      H2349   0.990       .  S
O2306      H2332   0.965       .  S
O2307     Zr3643   2.385       .  S
O2307     Zr2317   2.374       .  S
O2308     Zr3643   2.374       .  S
O2308     Zr2317   2.372       .  S
O2308      H2333   0.965       .  S
C2309      C2605   1.470   1_554  S
O2312      H2348   0.990       .  S
O2313      C2315   1.288       .  A
O2314      C2315   1.284       .  A
O2316     Zr2317   2.430       .  S
O2316      H2345   0.990       .  S
Zr2317     O2320   2.435       .  S
Zr2317     O2321   2.440       .  S
Zr2317     O2322   2.431       .  S
O2318     Zr3643   2.429       .  S
O2318      C2323   1.285       .  A
O2319      H2336   0.990       .  S
O2319      H2351   0.990       .  S
O2320      H2337   0.990       .  S
O2321      H2341   0.990       .  S
O2321      H2350   0.990       .  S
O2322      C2323   1.282       .  A
O2324      H2343   0.990       .  S
O2324      H2347   0.990       .  S
O2325      H2339   0.990       .  S
O2325      H2346   0.990       .  S
O2327      C2330   1.281       .  A
O2328      H2338   0.990       .  S
O2329      H2342   0.990       .  S
C2353      C2354   1.408       .  A
C2353      C2358   1.406       .  A
C2353      C2393   1.471       .  S
C2354      C2355   1.408       .  A
C2354      H2359   1.084       .  S
C2355      C2356   1.400       .  A
C2355      C2478   1.481       .  S
C2356      C2357   1.397       .  A
C2356      H2360   1.085       .  S
C2357      C2358   1.400       .  A
C2357      C2666   1.467       .  S
C2358      H2361   1.084       .  S
C2362      C2363   1.402       .  A
C2362      C2367   1.411       .  A
C2362      C2407   1.470       .  S
C2363      H2368   1.085       .  S
C2364      C2365   1.397       .  A
C2364      C2646   1.463       .  S
C2365      C2366   1.406       .  A
C2365      H2369   1.084       .  S
C2366      C2498   1.488       .  S
C2367      H2370   1.083       .  S
Zr2371     O2372   2.440       .  S
Zr2371     O2373   2.435       .  S
Zr2371     O2374   2.452       .  S
Zr2371     O2377   2.442       .  S
Zr2371     O3723   2.377       .  S
Zr2371     O3724   2.387       .  S
Zr2371     O2381   2.408       .  S
Zr2371     O2382   2.413       .  S
O2372      H2428   0.990       .  S
O2372      H2436   0.990       .  S
O2373      C3737   1.284       .  A
O2374      C2395   1.286       .  A
O2375     Zr2385   2.429       .  S
O2375      C2394   1.286       .  A
O2377      C2394   1.286       .  A
O2378     Zr2386   2.427       .  S
O2378      C2393   1.282       .  A
O2379     Zr2386   2.378       .  S
O2380     Zr2386   2.371       .  S
O2380      H2415   0.966       .  S
O2381     Zr2384   2.394       .  S
O2381     Zr2401   2.397       .  S
O2381      H2418   0.965       .  S
O2382     Zr2385   2.390       .  S
O2382     Zr2401   2.398       .  S
Zr2383     O2408   2.445       .  S
Zr2383     O2410   2.441       .  S
Zr2383     O2398   2.455       .  S
Zr2383     O2389   2.407       .  S
Zr2383     O2390   2.407       .  S
Zr2384     O3068   2.436   1_565  S
Zr2384     O3069   2.406   1_565  S
Zr2384     O3723   2.385       .  S
Zr2384     O3734   2.392       .  S
Zr2384     O2391   2.381       .  S
Zr2385     O2387   2.434       .  S
Zr2385     O3753   2.438       .  S
Zr2385     O3755   2.432       .  S
Zr2385     O3724   2.392       .  S
Zr2385     O3733   2.384       .  S
Zr2385     O2392   2.389       .  S
Zr2386     O2412   2.438       .  S
Zr2386     O2413   2.432       .  S
Zr2386     O2388   2.437       .  S
Zr2386     O2389   2.389       .  S
Zr2386     O2390   2.404       .  S
O2387      H2424   0.990       .  S
O2388      H2419   0.990       .  S
O2388      H2433   0.990       .  S
O2390      H2416   0.966       .  S
O2391     Zr3727   2.373       .  S
O2391     Zr2401   2.374       .  S
O2392     Zr3727   2.389       .  S
O2392     Zr2401   2.376       .  S
O2392      H2417   0.966       .  S
C2394      C2448   1.488       .  S
O2396      H2432   0.990       .  S
O2398      C2399   1.288       .  A
O2400     Zr2401   2.431       .  S
O2400      H2429   0.990       .  S
Zr2401     O2404   2.438       .  S
Zr2401     O2405   2.438       .  S
Zr2401     O2406   2.430       .  S
O2402     Zr3727   2.433       .  S
O2402      C2407   1.285       .  A
O2403      H2420   0.990       .  S
O2403      H2435   0.990       .  S
O2404      H2421   0.991       .  S
O2405      H2425   0.990       .  S
O2405      H2434   0.990       .  S
O2406      C2407   1.282       .  A
O2408      H2427   0.990       .  S
O2408      H2431   0.990       .  S
O2409      H2423   0.990       .  S
O2409      H2430   0.990       .  S
O2410      C2414   1.286       .  A
O2411      C2414   1.287       .  A
O2412      H2422   0.990       .  S
O2413      H2426   0.990       .  S
C2414      C2439   1.488       .  S
C2437      C2438   1.410       .  A
C2437      C2442   1.407       .  A
C2438      C2439   1.410       .  A
C2438      H2443   1.084       .  S
C2439      C2440   1.404       .  A
C2440      C2441   1.400       .  A
C2440      H2444   1.084       .  S
C2441      C2442   1.401       .  A
C2441      C2562   1.474       .  S
C2442      H2445   1.084       .  S
C2446      C2447   1.411       .  A
C2446      C2451   1.402       .  A
C2446      C2477   1.468       .  S
C2447      C2448   1.412       .  A
C2447      H2452   1.083       .  S
C2448      C2449   1.404       .  A
C2449      C2450   1.397       .  A
C2449      H2453   1.084       .  S
C2450      C2451   1.394       .  A
C2450      C2582   1.464       .  S
C2451      H2454   1.085       .  S
Zr2455     O2456   2.441       .  S
Zr2455     O2457   2.430       .  S
Zr2455     O2458   2.454       .  S
Zr2455     O2461   2.429       .  S
Zr2455     O2463   2.374       .  S
Zr2455     O2464   2.388       .  S
Zr2455     O2465   2.404       .  S
Zr2455     O2466   2.409       .  S
O2456      H2512   0.990       .  S
O2456      H2520   0.990       .  S
O2457      C2477   1.284       .  A
O2458      C2479   1.287       .  A
O2459     Zr2469   2.430       .  S
O2459      C2478   1.288       .  A
O2460     Zr2468   2.410       .  S
O2460      C2479   1.281       .  A
O2461      C2478   1.284       .  A
O2462     Zr2470   2.425       .  S
O2462      C2477   1.281       .  A
O2463     Zr2468   2.385       .  S
O2463     Zr2470   2.377       .  S
O2464     Zr2469   2.389       .  S
O2464     Zr2470   2.372       .  S
O2464      H2499   0.967       .  S
O2465     Zr2468   2.391       .  S
O2465     Zr2485   2.405       .  S
O2465      H2502   0.966       .  S
O2466     Zr2469   2.383       .  S
O2466     Zr2485   2.389       .  S
Zr2467     O2492   2.448       .  S
Zr2467     O2486   2.437       .  S
Zr2467     O2494   2.447       .  S
Zr2467     O2482   2.458       .  S
Zr2467     O2473   2.410       .  S
Zr2467     O2474   2.404       .  S
Zr2467     O2475   2.379       .  S
Zr2467     O2476   2.388       .  S
Zr2468     O2487   2.434       .  S
Zr2468     O2480   2.435       .  S
Zr2468     O2481   2.409       .  S
Zr2468     O2474   2.391       .  S
Zr2468     O2475   2.380       .  S
Zr2469     O2471   2.437       .  S
Zr2469     O2493   2.436       .  S
Zr2469     O2495   2.426       .  S
Zr2469     O2473   2.385       .  S
Zr2469     O2476   2.387       .  S
Zr2470     O2496   2.434       .  S
Zr2470     O2497   2.427       .  S
Zr2470     O2472   2.436       .  S
Zr2470     O2473   2.394       .  S
Zr2470     O2474   2.388       .  S
O2471      H2508   0.990       .  S
O2472      H2503   0.990       .  S
O2472      H2517   0.990       .  S
O2474      H2500   0.965       .  S
O2475     Zr2485   2.379       .  S
O2476     Zr2485   2.375       .  S
O2476      H2501   0.966       .  S
C2479      C2525   1.475       .  S
O2480      H2516   0.990       .  S
O2481      C2483   1.281       .  A
O2482      C2483   1.288       .  A
C2483      C2534   1.473       .  S
O2484     Zr2485   2.433       .  S
O2484      H2513   0.990       .  S
Zr2485     O2488   2.435       .  S
Zr2485     O2489   2.444       .  S
Zr2485     O2490   2.432       .  S
O2486      C2491   1.286       .  A
O2487      H2504   0.990       .  S
O2487      H2519   0.990       .  S
O2488      H2505   0.990       .  S
O2489      H2509   0.991       .  S
O2489      H2518   0.990       .  S
O2490      C2491   1.284       .  A
O2492      H2511   0.990       .  S
O2492      H2515   0.990       .  S
O2493      H2507   0.990       .  S
O2493      H2514   0.990       .  S
O2494      C2498   1.287       .  A
O2495      C2498   1.286       .  A
O2496      H2506   0.990       .  S
O2497      H2510   0.990       .  S
C2521      C2522   1.407       .  A
C2521      C2526   1.409       .  A
C2521      C2575   1.474       .  S
C2522      C2523   1.408       .  A
C2522      H2527   1.084       .  S
C2523      C2524   1.404       .  A
C2523      C2651   1.483       .  S
C2524      C2525   1.400       .  A
C2524      H2528   1.084       .  S
C2525      C2526   1.402       .  A
C2526      H2529   1.084       .  S
C2530      C2531   1.409       .  A
C2530      C2535   1.404       .  A
C2530      C2561   1.467       .  S
C2531      H2536   1.083       .  S
C2532      C2533   1.408       .  A
C2532      C2647   1.490       .  S
C2533      C2534   1.403       .  A
C2533      H2537   1.084       .  S
C2535      H2538   1.085       .  S
Zr2539     O2540   2.440       .  S
Zr2539     O2541   2.425       .  S
Zr2539     O2542   2.440       .  S
Zr2539     O2545   2.447       .  S
Zr2539     O2547   2.386       .  S
Zr2539     O2548   2.377       .  S
Zr2539     O2549   2.410       .  S
Zr2539     O2550   2.407       .  S
O2540      H2596   0.991       .  S
O2540      H2604   0.990       .  S
O2541      C2561   1.283       .  A
O2542      C2563   1.285       .  A
O2543     Zr2553   2.407       .  S
O2543      C2562   1.280       .  A
O2544     Zr2552   2.437       .  S
O2544      C2563   1.287       .  A
O2545      C2562   1.286       .  A
O2546     Zr2554   2.429       .  S
O2546      C2561   1.282       .  A
O2547     Zr2552   2.395       .  S
O2547     Zr2554   2.380       .  S
O2548     Zr2553   2.380       .  S
O2548     Zr2554   2.374       .  S
O2548      H2583   0.966       .  S
O2549     Zr2552   2.393       .  S
O2549     Zr2569   2.390       .  S
O2549      H2586   0.965       .  S
O2550     Zr2553   2.388       .  S
O2550     Zr2569   2.409       .  S
Zr2551     O2576   2.447       .  S
Zr2551     O2570   2.439       .  S
Zr2551     O2578   2.439       .  S
Zr2551     O2566   2.450       .  S
Zr2551     O2557   2.403       .  S
Zr2551     O2558   2.411       .  S
Zr2551     O2559   2.384       .  S
Zr2551     O2560   2.384       .  S
Zr2552     O2571   2.437       .  S
Zr2552     O2564   2.436       .  S
Zr2552     O2565   2.432       .  S
Zr2552     O2558   2.392       .  S
Zr2552     O2559   2.394       .  S
Zr2553     O2555   2.436       .  S
Zr2553     O2577   2.440       .  S
Zr2553     O2579   2.400       .  S
Zr2553     O2557   2.386       .  S
Zr2553     O2560   2.377       .  S
Zr2554     O2580   2.437       .  S
Zr2554     O2581   2.431       .  S
Zr2554     O2556   2.437       .  S
Zr2554     O2557   2.394       .  S
Zr2554     O2558   2.394       .  S
O2555      H2592   0.990       .  S
O2556      H2587   0.990       .  S
O2556      H2601   0.990       .  S
O2558      H2584   0.966       .  S
O2559     Zr2569   2.375       .  S
O2560     Zr2569   2.374       .  S
O2560      H2585   0.966       .  S
C2563      C2609   1.485       .  S
O2564      H2600   0.990       .  S
O2565      C2567   1.287       .  A
O2566      C2567   1.288       .  A
C2567      C2616   1.491       .  S
O2568     Zr2569   2.432       .  S
O2568      H2597   0.990       .  S
Zr2569     O2572   2.436       .  S
Zr2569     O2573   2.436       .  S
Zr2569     O2574   2.435       .  S
O2570      C2575   1.286       .  A
O2571      H2588   0.990       .  S
O2571      H2603   0.990       .  S
O2572      H2589   0.990       .  S
O2573      H2593   0.990       .  S
O2573      H2602   0.990       .  S
O2574      C2575   1.283       .  A
O2576      H2595   0.990       .  S
O2576      H2599   0.990       .  S
O2577      H2591   0.990       .  S
O2577      H2598   0.990       .  S
O2578      C2582   1.284       .  A
O2579      C2582   1.280       .  A
O2580      H2590   0.990       .  S
O2581      H2594   0.990       .  S
C2605      C2606   1.406       .  A
C2605      C2610   1.408       .  A
C2606      C2607   1.399       .  A
C2606      H2611   1.084       .  S
C2607      C2608   1.402       .  A
C2608      C2609   1.405       .  A
C2608      H2612   1.084       .  S
C2609      C2610   1.408       .  A
C2610      H2613   1.084       .  S
C2614      C2615   1.411       .  A
C2614      C2619   1.404       .  A
C2614      C2659   1.470       .  S
C2615      C2616   1.413       .  A
C2615      H2620   1.083       .  S
C2616      C2617   1.407       .  A
C2617      C2618   1.399       .  A
C2617      H2621   1.084       .  S
C2618      C2619   1.394       .  A
C2619      H2622   1.085       .  S
Zr2623     O2624   2.440       .  S
Zr2623     O2625   2.441       .  S
Zr2623     O2626   2.453       .  S
Zr2623     O2629   2.435       .  S
Zr2623     O3975   2.380       .  S
Zr2623     O3976   2.384       .  S
Zr2623     O2633   2.415       .  S
Zr2623     O2634   2.403       .  S
O2624      H2680   0.990       .  S
O2624      H2688   0.990       .  S
O2625      C3989   1.286       .  A
O2626      C2647   1.288       .  A
O2627      C2646   1.280       .  A
O2628     Zr2636   2.428       .  S
O2628      C2647   1.286       .  A
O2630     Zr2638   2.424       .  S
O2630      C2645   1.281       .  A
O2631     Zr2638   2.377       .  S
O2632     Zr2638   2.375       .  S
O2632      H2667   0.966       .  S
O2633     Zr2636   2.398       .  S
O2633     Zr2653   2.394       .  S
O2633      H2670   0.966       .  S
O2634     Zr2637   2.383       .  S
O2634     Zr2653   2.394       .  S
Zr2635     O2660   2.443       .  S
Zr2635     O2662   2.440       .  S
Zr2635     O2650   2.429       .  S
Zr2635     O2641   2.405       .  S
Zr2635     O2642   2.406       .  S
Zr2636     O2655   2.435       .  S
Zr2636     O3992   2.435       .  S
Zr2636     O3993   2.438       .  S
Zr2636     O3975   2.395       .  S
Zr2636     O3986   2.389       .  S
Zr2636     O2643   2.388       .  S
Zr2637     O3333   2.437       .  S
Zr2637     O3335   2.406       .  S
Zr2637     O3976   2.378       .  S
Zr2637     O3985   2.387       .  S
Zr2637     O2644   2.374       .  S
Zr2638     O2664   2.436       .  S
Zr2638     O2665   2.431       .  S
Zr2638     O2640   2.438       .  S
Zr2638     O2641   2.406       .  S
Zr2638     O2642   2.386       .  S
O2639      H2676   0.990       .  S
O2640      H2671   0.990       .  S
O2640      H2685   0.990       .  S
O2642      H2668   0.965       .  S
O2643     Zr3979   2.386       .  S
O2643     Zr2653   2.377       .  S
O2644     Zr3979   2.375       .  S
O2644     Zr2653   2.373       .  S
O2644      H2669   0.965       .  S
O2648      H2684   0.990       .  S
O2649      C2651   1.288       .  A
O2650      C2651   1.284       .  A
O2652     Zr2653   2.431       .  S
O2652      H2681   0.990       .  S
Zr2653     O2656   2.435       .  S
Zr2653     O2657   2.441       .  S
Zr2653     O2658   2.429       .  S
O2654     Zr3979   2.430       .  S
O2654      C2659   1.285       .  A
O2655      H2672   0.990       .  S
O2655      H2687   0.990       .  S
O2656      H2673   0.990       .  S
O2657      H2677   0.991       .  S
O2657      H2686   0.990       .  S
O2658      C2659   1.282       .  A
O2660      H2679   0.990       .  S
O2660      H2683   0.990       .  S
O2661      H2675   0.990       .  S
O2661      H2682   0.990       .  S
O2663      C2666   1.281       .  A
O2664      H2674   0.990       .  S
O2665      H2678   0.990       .  S
C2689      C2690   1.409       .  A
C2689      C2694   1.406       .  A
C2689      C2729   1.471       .  S
C2690      C2691   1.409       .  A
C2690      H2695   1.084       .  S
C2691      C2692   1.400       .  A
C2691      C2814   1.482       .  S
C2692      C2693   1.397       .  A
C2692      H2696   1.085       .  S
C2693      C2694   1.400       .  A
C2693      C3002   1.468       .  S
C2694      H2697   1.084       .  S
C2698      C2699   1.402       .  A
C2698      C2703   1.411       .  A
C2698      C2743   1.469       .  S
C2699      C3036   1.394       .  A
C2699      H2704   1.085       .  S
C2700      C3035   1.394   1_554  A
C2700      C2701   1.397       .  A
C2700      C2982   1.464       .  S
C2701      C2702   1.406       .  A
C2701      H2705   1.084       .  S
C2702      C3039   1.411   1_554  A
C2702      C2834   1.487       .  S
C2703      C3038   1.412       .  A
C2703      H2706   1.083       .  S
Zr2707     O2708   2.439       .  S
Zr2707     O2709   2.437   1_655  S
Zr2707     O2710   2.454       .  S
Zr2707     O2713   2.443       .  S
Zr2707     O2717   2.408       .  S
Zr2707     O2718   2.414       .  S
O2708      H2764   0.990       .  S
O2708      H2772   0.990       .  S
O2710      C2731   1.287       .  A
O2711     Zr2721   2.429       .  S
O2711      C2730   1.287       .  A
O2712     Zr3392   2.407   1_545  S
O2712      C3403   1.280   1_545  A
O2713      C2730   1.286       .  A
O2714     Zr2722   2.425       .  S
O2714      C2729   1.282       .  A
O2715     Zr2722   2.379       .  S
O2716     Zr2722   2.370       .  S
O2716      H2751   0.966       .  S
O2717     Zr2720   2.393       .  S
O2717     Zr2737   2.396       .  S
O2717      H2754   0.965       .  S
O2718     Zr2721   2.389       .  S
O2718     Zr2737   2.398       .  S
Zr2719     O2744   2.445       .  S
Zr2719     O2746   2.440       .  S
Zr2719     O2734   2.453       .  S
Zr2719     O2725   2.407       .  S
Zr2719     O2726   2.406       .  S
Zr2720     O3411   2.437       .  S
Zr2720     O3384   2.407       .  S
Zr2720     O2727   2.380       .  S
Zr2721     O2723   2.435       .  S
Zr2721     O2728   2.390       .  S
Zr2722     O2748   2.438       .  S
Zr2722     O2749   2.432       .  S
Zr2722     O2724   2.436       .  S
Zr2722     O2725   2.389       .  S
Zr2722     O2726   2.403       .  S
O2723      H2760   0.990       .  S
O2724      H2755   0.990       .  S
O2724      H2769   0.990       .  S
O2726      H2752   0.966       .  S
O2727     Zr2737   2.374       .  S
O2728     Zr2737   2.376       .  S
O2728      H2753   0.966       .  S
C2730      C2784   1.489       .  S
C2731      C3626   1.469       .  S
C2731      O3384   1.280       .  A
O2732      H2768   0.990       .  S
O2733      C3407   1.280   1_545  A
O2734      C2735   1.287       .  A
C2735      C3615   1.472       .  S
C2735      O3405   1.280       .  A
O2736     Zr2737   2.430       .  S
O2736      H2765   0.990       .  S
Zr2737     O2740   2.438       .  S
Zr2737     O2741   2.437       .  S
Zr2737     O2742   2.429       .  S
O2738      C2743   1.285       .  A
O2739     Zr3392   2.437   1_545  S
O2739      H2756   0.990       .  S
O2739      H2771   0.990       .  S
O2740      H2757   0.991       .  S
O2741      H2761   0.990       .  S
O2741      H2770   0.990       .  S
O2742      C2743   1.282       .  A
O2744      H2763   0.990       .  S
O2744      H2767   0.990       .  S
O2745      H2759   0.990       .  S
O2745      H2766   0.990       .  S
O2746      C2750   1.286       .  A
O2747      C2750   1.287       .  A
O2748      H2758   0.990       .  S
O2749      H2762   0.990       .  S
C2750      C2775   1.487       .  S
C2773      C2774   1.409       .  A
C2773      C2778   1.408       .  A
C2773      C3163   1.474       .  S
C2774      C2775   1.410       .  A
C2774      H2779   1.084       .  S
C2775      C2776   1.404       .  A
C2776      C2777   1.400       .  A
C2776      H2780   1.084       .  S
C2777      C2778   1.401       .  A
C2777      C2898   1.474       .  S
C2778      H2781   1.084       .  S
C2782      C2783   1.412       .  A
C2782      C2787   1.402       .  A
C2782      C2813   1.469       .  S
C2783      C2784   1.412       .  A
C2783      H2788   1.083       .  S
C2784      C2785   1.404       .  A
C2785      C2786   1.397       .  A
C2785      H2789   1.084       .  S
C2786      C2787   1.394       .  A
C2786      C2918   1.464       .  S
C2787      H2790   1.085       .  S
Zr2791     O2792   2.440       .  S
Zr2791     O2793   2.430       .  S
Zr2791     O2794   2.453       .  S
Zr2791     O2797   2.430       .  S
Zr2791     O2799   2.373       .  S
Zr2791     O2800   2.386       .  S
Zr2791     O2801   2.405       .  S
Zr2791     O2802   2.408       .  S
O2792      H2848   0.990       .  S
O2792      H2856   0.990       .  S
O2793      C2813   1.284       .  A
O2794      C2815   1.286       .  A
O2795     Zr2805   2.432       .  S
O2795      C2814   1.288       .  A
O2796     Zr2804   2.406       .  S
O2796      C2815   1.281       .  A
O2797      C2814   1.284       .  A
O2798     Zr2806   2.428       .  S
O2798      C2813   1.281       .  A
O2799     Zr2804   2.386       .  S
O2799     Zr2806   2.375       .  S
O2800     Zr2805   2.388       .  S
O2800     Zr2806   2.371       .  S
O2800      H2835   0.967       .  S
O2801     Zr2804   2.392       .  S
O2801     Zr2821   2.403       .  S
O2801      H2838   0.966       .  S
O2802     Zr2805   2.381       .  S
O2802     Zr2821   2.389       .  S
Zr2803     O2828   2.448       .  S
Zr2803     O2822   2.439       .  S
Zr2803     O2830   2.446       .  S
Zr2803     O2818   2.455       .  S
Zr2803     O2809   2.411       .  S
Zr2803     O2810   2.404       .  S
Zr2803     O2811   2.379       .  S
Zr2803     O2812   2.389       .  S
Zr2804     O2823   2.434       .  S
Zr2804     O2816   2.436       .  S
Zr2804     O2817   2.408       .  S
Zr2804     O2810   2.391       .  S
Zr2804     O2811   2.379       .  S
Zr2805     O2807   2.437       .  S
Zr2805     O2829   2.437       .  S
Zr2805     O2831   2.424       .  S
Zr2805     O2809   2.386       .  S
Zr2805     O2812   2.388       .  S
Zr2806     O2832   2.434       .  S
Zr2806     O2833   2.427       .  S
Zr2806     O2808   2.436       .  S
Zr2806     O2809   2.395       .  S
Zr2806     O2810   2.390       .  S
O2807      H2844   0.990       .  S
O2808      H2839   0.990       .  S
O2808      H2853   0.990       .  S
O2810      H2836   0.965       .  S
O2811     Zr2821   2.379       .  S
O2812     Zr2821   2.375       .  S
O2812      H2837   0.966       .  S
C2815      C2861   1.473       .  S
O2816      H2852   0.990       .  S
O2817      C2819   1.280       .  A
O2818      C2819   1.288       .  A
C2819      C2870   1.471       .  S
O2820     Zr2821   2.433       .  S
O2820      H2849   0.990       .  S
Zr2821     O2824   2.435       .  S
Zr2821     O2825   2.442       .  S
Zr2821     O2826   2.433       .  S
O2822      C2827   1.286       .  A
O2823      H2840   0.990       .  S
O2823      H2855   0.990       .  S
O2824      H2841   0.990       .  S
O2825      H2845   0.991       .  S
O2825      H2854   0.990       .  S
O2826      C2827   1.284       .  A
C2827      C3109   1.474   1_554  S
O2828      H2847   0.990       .  S
O2828      H2851   0.990       .  S
O2829      H2843   0.990       .  S
O2829      H2850   0.990       .  S
O2830      C2834   1.287       .  A
O2831      C2834   1.286       .  A
O2832      H2842   0.990       .  S
O2833      H2846   0.990       .  S
C2857      C2858   1.408       .  A
C2857      C2862   1.409       .  A
C2857      C2911   1.475       .  S
C2858      C2859   1.409       .  A
C2858      H2863   1.084       .  S
C2859      C2860   1.403       .  A
C2859      C2987   1.483       .  S
C2860      C2861   1.399       .  A
C2860      H2864   1.085       .  S
C2861      C2862   1.402       .  A
C2862      H2865   1.084       .  S
C2866      C2867   1.409       .  A
C2866      C2871   1.404       .  A
C2866      C2897   1.468       .  S
C2867      C3204   1.411       .  A
C2867      H2872   1.083       .  S
C2868      C3203   1.411   1_554  A
C2868      C2869   1.408       .  A
C2868      C2983   1.489       .  S
C2869      C2870   1.402       .  A
C2869      H2873   1.084       .  S
C2870      C3207   1.394   1_554  A
C2871      C3206   1.394       .  A
C2871      H2874   1.085       .  S
Zr2875     O2876   2.440       .  S
Zr2875     O2877   2.427       .  S
Zr2875     O2878   2.438       .  S
Zr2875     O2881   2.446       .  S
Zr2875     O2883   2.387       .  S
Zr2875     O2884   2.376       .  S
Zr2875     O2885   2.411       .  S
Zr2875     O2886   2.406       .  S
O2876      H2932   0.991       .  S
O2876      H2940   0.990       .  S
O2877      C2897   1.283       .  A
O2878      C2899   1.285       .  A
O2879     Zr2889   2.409       .  S
O2879      C2898   1.281       .  A
O2880     Zr2888   2.436       .  S
O2880      C2899   1.287       .  A
O2881      C2898   1.285       .  A
O2882     Zr2890   2.431       .  S
O2882      C2897   1.282       .  A
O2883     Zr2888   2.395       .  S
O2883     Zr2890   2.380       .  S
O2884     Zr2889   2.380       .  S
O2884     Zr2890   2.374       .  S
O2884      H2919   0.966       .  S
O2885     Zr2888   2.393       .  S
O2885     Zr2905   2.389       .  S
O2885      H2922   0.965       .  S
O2886     Zr2889   2.386       .  S
O2886     Zr2905   2.409       .  S
Zr2887     O2912   2.447       .  S
Zr2887     O2906   2.443       .  S
Zr2887     O2914   2.438       .  S
Zr2887     O2902   2.449       .  S
Zr2887     O2893   2.403       .  S
Zr2887     O2894   2.412       .  S
Zr2887     O2895   2.384       .  S
Zr2887     O2896   2.383       .  S
Zr2888     O2907   2.437       .  S
Zr2888     O2900   2.436       .  S
Zr2888     O2901   2.434       .  S
Zr2888     O2894   2.391       .  S
Zr2888     O2895   2.394       .  S
Zr2889     O2891   2.435       .  S
Zr2889     O2913   2.439       .  S
Zr2889     O2915   2.402       .  S
Zr2889     O2893   2.386       .  S
Zr2889     O2896   2.376       .  S
Zr2890     O2916   2.437       .  S
Zr2890     O2917   2.432       .  S
Zr2890     O2892   2.437       .  S
Zr2890     O2893   2.395       .  S
Zr2890     O2894   2.395       .  S
O2891      H2928   0.990       .  S
O2892      H2923   0.990       .  S
O2892      H2937   0.990       .  S
O2894      H2920   0.966       .  S
O2895     Zr2905   2.375       .  S
O2896     Zr2905   2.372       .  S
O2896      H2921   0.965       .  S
C2899      C2945   1.483       .  S
O2900      H2936   0.990       .  S
O2901      C2903   1.288       .  A
O2902      C2903   1.287       .  A
C2903      C2952   1.491       .  S
O2904     Zr2905   2.433       .  S
O2904      H2933   0.990       .  S
Zr2905     O2908   2.435       .  S
Zr2905     O2909   2.437       .  S
Zr2905     O2910   2.437       .  S
O2906      C2911   1.287       .  A
O2907      H2924   0.990       .  S
O2907      H2939   0.990       .  S
O2908      H2925   0.990       .  S
O2909      H2929   0.990       .  S
O2909      H2938   0.990       .  S
O2910      C2911   1.284       .  A
O2912      H2931   0.990       .  S
O2912      H2935   0.990       .  S
O2913      H2927   0.990       .  S
O2913      H2934   0.990       .  S
O2914      C2918   1.285       .  A
O2915      C2918   1.280       .  A
O2916      H2926   0.990       .  S
O2917      H2930   0.990       .  S
C2941      C2942   1.406       .  A
C2941      C2946   1.407       .  A
C2941      C3317   1.470       .  S
C2942      C2943   1.400       .  A
C2942      H2947   1.084       .  S
C2943      C2944   1.401       .  A
C2943      C3407   1.472   1_545  S
C2944      C2945   1.404       .  A
C2944      H2948   1.084       .  S
C2945      C2946   1.408       .  A
C2946      H2949   1.084       .  S
C2950      C2951   1.411       .  A
C2950      C2955   1.404       .  A
C2950      C2995   1.470       .  S
C2951      C2952   1.412       .  A
C2951      H2956   1.083       .  S
C2952      C2953   1.407       .  A
C2953      C2954   1.399       .  A
C2953      H2957   1.084       .  S
C2954      C2955   1.394       .  A
C2954      C3403   1.468   1_545  S
C2955      H2958   1.085       .  S
Zr2959     O2960   2.441       .  S
Zr2959     O2961   2.442   1_655  S
Zr2959     O2962   2.452       .  S
Zr2959     O2965   2.437       .  S
Zr2959     O2969   2.415       .  S
Zr2959     O2970   2.403       .  S
O2960      H3016   0.990       .  S
O2960      H3024   0.990       .  S
O2962      C2983   1.287       .  A
O2963     Zr3645   2.403       .  S
O2963      C2982   1.280       .  A
O2964     Zr2972   2.430       .  S
O2964      C2983   1.286       .  A
O2965      C3654   1.285   1_545  A
O2966     Zr2974   2.423       .  S
O2966      C2981   1.281       .  A
O2967     Zr2974   2.378       .  S
O2968     Zr2974   2.376       .  S
O2968      H3003   0.966       .  S
O2969     Zr2972   2.397       .  S
O2969     Zr2989   2.395       .  S
O2969      H3006   0.966       .  S
O2970     Zr2973   2.382       .  S
O2970     Zr2989   2.394       .  S
Zr2971     O2996   2.444       .  S
Zr2971     O2998   2.440       .  S
Zr2971     O2986   2.429       .  S
Zr2971     O2977   2.404       .  S
Zr2971     O2978   2.408       .  S
Zr2972     O2991   2.435       .  S
Zr2972     O2979   2.387       .  S
Zr2973     O3647   2.437   1_545  S
Zr2973     O3635   2.404   1_545  S
Zr2973     O2980   2.375       .  S
Zr2974     O3000   2.436       .  S
Zr2974     O3001   2.432       .  S
Zr2974     O2976   2.439       .  S
Zr2974     O2977   2.406       .  S
Zr2974     O2978   2.387       .  S
O2975     Zr3645   2.438       .  S
O2975      H3012   0.990       .  S
O2976      H3007   0.990       .  S
O2976      H3021   0.990       .  S
O2978      H3004   0.965       .  S
O2979     Zr2989   2.376       .  S
O2980     Zr2989   2.372       .  S
O2980      H3005   0.965       .  S
C2981      C3277   1.470   1_554  S
C2982      O3637   1.285       .  A
O2984      H3020   0.990       .  S
O2985      C2987   1.288       .  A
O2986      C2987   1.284       .  A
O2988     Zr2989   2.431       .  S
O2988      H3017   0.990       .  S
Zr2989     O2992   2.435       .  S
Zr2989     O2993   2.441       .  S
Zr2989     O2994   2.430       .  S
O2990      C2995   1.285       .  A
O2991      H3008   0.990       .  S
O2991      H3023   0.990       .  S
O2992      H3009   0.990       .  S
O2993      H3013   0.991       .  S
O2993      H3022   0.990       .  S
O2994      C2995   1.282       .  A
O2996      H3015   0.990       .  S
O2996      H3019   0.990       .  S
O2997      H3011   0.990       .  S
O2997      H3018   0.990       .  S
O2998      C3674   1.284   1_545  A
O2999      C3002   1.281       .  A
O3000      H3010   0.990       .  S
O3001      H3014   0.990       .  S
C3002      O3670   1.285       .  A
C3025      C3026   1.408       .  A
C3025      C3030   1.407       .  A
C3025      C3065   1.471       .  S
C3026      C3027   1.408       .  A
C3026      H3031   1.084       .  S
C3027      C3028   1.400       .  A
C3027      C3150   1.482       .  S
C3028      C3029   1.397       .  A
C3028      H3032   1.085       .  S
C3029      C3030   1.400       .  A
C3029      C3338   1.468       .  S
C3030      H3033   1.084       .  S
C3034      C3035   1.402       .  A
C3034      C3039   1.411       .  A
C3034      C3079   1.470       .  S
C3035      H3040   1.085       .  S
C3036      C3037   1.397       .  A
C3036      C3318   1.463       .  S
C3037      C3038   1.406       .  A
C3037      H3041   1.084       .  S
C3038      C3170   1.488       .  S
C3039      H3042   1.083       .  S
Zr3043     O3044   2.439       .  S
Zr3043     O3045   2.436   1_655  S
Zr3043     O3046   2.451       .  S
Zr3043     O3049   2.441       .  S
Zr3043     O3053   2.408       .  S
Zr3043     O3054   2.412       .  S
O3044      H3100   0.990       .  S
O3044      H3108   0.990       .  S
O3046      C3067   1.286       .  A
O3047     Zr3057   2.429       .  S
O3047      C3066   1.287       .  A
O3048     Zr3728   2.408   1_545  S
O3048      C3739   1.280   1_545  A
O3049      C3066   1.286       .  A
O3050     Zr3058   2.426       .  S
O3050      C3065   1.282       .  A
O3051     Zr3058   2.378       .  S
O3052     Zr3058   2.371       .  S
O3052      H3087   0.966       .  S
O3053     Zr3056   2.394       .  S
O3053     Zr3073   2.397       .  S
O3053      H3090   0.965       .  S
O3054     Zr3057   2.389       .  S
O3054     Zr3073   2.397       .  S
Zr3055     O3080   2.446       .  S
Zr3055     O3082   2.440       .  S
Zr3055     O3070   2.454       .  S
Zr3055     O3061   2.407       .  S
Zr3055     O3062   2.407       .  S
Zr3056     O3747   2.437       .  S
Zr3056     O3720   2.408       .  S
Zr3056     O3063   2.381       .  S
Zr3057     O3059   2.434       .  S
Zr3057     O3064   2.390       .  S
Zr3058     O3084   2.438       .  S
Zr3058     O3085   2.432       .  S
Zr3058     O3060   2.436       .  S
Zr3058     O3061   2.388       .  S
Zr3058     O3062   2.404       .  S
O3059      H3096   0.990       .  S
O3060      H3091   0.990       .  S
O3060      H3105   0.990       .  S
O3062      H3088   0.966       .  S
O3063     Zr3073   2.374       .  S
O3064     Zr3073   2.376       .  S
O3064      H3089   0.966       .  S
C3066      C3120   1.488       .  S
C3067      C3962   1.468       .  S
C3067      O3720   1.280       .  A
O3068      H3104   0.990       .  S
O3069      C3743   1.280   1_545  A
O3070      C3071   1.287       .  A
C3071      C3951   1.473       .  S
C3071      O3741   1.280       .  A
O3072     Zr3073   2.430       .  S
O3072      H3101   0.990       .  S
Zr3073     O3076   2.438       .  S
Zr3073     O3077   2.437       .  S
Zr3073     O3078   2.429       .  S
O3074      C3079   1.285       .  A
O3075     Zr3728   2.437   1_545  S
O3075      H3092   0.990       .  S
O3075      H3107   0.990       .  S
O3076      H3093   0.991       .  S
O3077      H3097   0.990       .  S
O3077      H3106   0.990       .  S
O3078      C3079   1.282       .  A
O3080      H3099   0.990       .  S
O3080      H3103   0.990       .  S
O3081      H3095   0.990       .  S
O3081      H3102   0.990       .  S
O3082      C3086   1.286       .  A
O3083      C3086   1.287       .  A
O3084      H3094   0.990       .  S
O3085      H3098   0.990       .  S
C3086      C3111   1.487       .  S
C3109      C3110   1.410       .  A
C3109      C3114   1.407       .  A
C3110      C3111   1.410       .  A
C3110      H3115   1.084       .  S
C3111      C3112   1.403       .  A
C3112      C3113   1.400       .  A
C3112      H3116   1.084       .  S
C3113      C3114   1.401       .  A
C3113      C3234   1.473       .  S
C3114      H3117   1.084       .  S
C3118      C3119   1.412       .  A
C3118      C3123   1.401       .  A
C3118      C3149   1.468       .  S
C3119      C3120   1.412       .  A
C3119      H3124   1.083       .  S
C3120      C3121   1.404       .  A
C3121      C3122   1.397       .  A
C3121      H3125   1.084       .  S
C3122      C3123   1.393       .  A
C3122      C3254   1.463       .  S
C3123      H3126   1.085       .  S
Zr3127     O3128   2.440       .  S
Zr3127     O3129   2.429       .  S
Zr3127     O3130   2.456       .  S
Zr3127     O3133   2.428       .  S
Zr3127     O3135   2.374       .  S
Zr3127     O3136   2.388       .  S
Zr3127     O3137   2.403       .  S
Zr3127     O3138   2.409       .  S
O3128      H3184   0.990       .  S
O3128      H3192   0.990       .  S
O3129      C3149   1.284       .  A
O3130      C3151   1.287       .  A
O3131     Zr3141   2.432       .  S
O3131      C3150   1.288       .  A
O3132     Zr3140   2.408       .  S
O3132      C3151   1.281       .  A
O3133      C3150   1.284       .  A
O3134     Zr3142   2.427       .  S
O3134      C3149   1.281       .  A
O3135     Zr3140   2.385       .  S
O3135     Zr3142   2.377       .  S
O3136     Zr3141   2.388       .  S
O3136     Zr3142   2.371       .  S
O3136      H3171   0.967       .  S
O3137     Zr3140   2.391       .  S
O3137     Zr3157   2.405       .  S
O3137      H3174   0.966       .  S
O3138     Zr3141   2.382       .  S
O3138     Zr3157   2.389       .  S
Zr3139     O3164   2.448       .  S
Zr3139     O3158   2.438       .  S
Zr3139     O3166   2.446       .  S
Zr3139     O3154   2.457       .  S
Zr3139     O3145   2.410       .  S
Zr3139     O3146   2.405       .  S
Zr3139     O3147   2.378       .  S
Zr3139     O3148   2.389       .  S
Zr3140     O3159   2.434       .  S
Zr3140     O3152   2.435       .  S
Zr3140     O3153   2.406       .  S
Zr3140     O3146   2.393       .  S
Zr3140     O3147   2.380       .  S
Zr3141     O3143   2.437       .  S
Zr3141     O3165   2.436       .  S
Zr3141     O3167   2.427       .  S
Zr3141     O3145   2.384       .  S
Zr3141     O3148   2.388       .  S
Zr3142     O3168   2.435       .  S
Zr3142     O3169   2.427       .  S
Zr3142     O3144   2.435       .  S
Zr3142     O3145   2.394       .  S
Zr3142     O3146   2.390       .  S
O3143      H3180   0.990       .  S
O3144      H3175   0.990       .  S
O3144      H3189   0.990       .  S
O3146      H3172   0.965       .  S
O3147     Zr3157   2.379       .  S
O3148     Zr3157   2.375       .  S
O3148      H3173   0.966       .  S
C3151      C3197   1.475       .  S
O3152      H3188   0.990       .  S
O3153      C3155   1.280       .  A
O3154      C3155   1.288       .  A
C3155      C3206   1.471       .  S
O3156     Zr3157   2.434       .  S
O3156      H3185   0.990       .  S
Zr3157     O3160   2.435       .  S
Zr3157     O3161   2.444       .  S
Zr3157     O3162   2.433       .  S
O3158      C3163   1.286       .  A
O3159      H3176   0.990       .  S
O3159      H3191   0.990       .  S
O3160      H3177   0.990       .  S
O3161      H3181   0.991       .  S
O3161      H3190   0.990       .  S
O3162      C3163   1.284       .  A
O3164      H3183   0.991       .  S
O3164      H3187   0.990       .  S
O3165      H3179   0.990       .  S
O3165      H3186   0.990       .  S
O3166      C3170   1.286       .  A
O3167      C3170   1.286       .  A
O3168      H3178   0.990       .  S
O3169      H3182   0.990       .  S
C3193      C3194   1.408       .  A
C3193      C3198   1.409       .  A
C3193      C3247   1.474       .  S
C3194      C3195   1.408       .  A
C3194      H3199   1.084       .  S
C3195      C3196   1.404       .  A
C3195      C3323   1.483       .  S
C3196      C3197   1.400       .  A
C3196      H3200   1.084       .  S
C3197      C3198   1.401       .  A
C3198      H3201   1.084       .  S
C3202      C3203   1.409       .  A
C3202      C3207   1.403       .  A
C3202      C3233   1.467       .  S
C3203      H3208   1.083       .  S
C3204      C3205   1.408       .  A
C3204      C3319   1.490       .  S
C3205      C3206   1.402       .  A
C3205      H3209   1.084       .  S
C3207      H3210   1.085       .  S
Zr3211     O3212   2.440       .  S
Zr3211     O3213   2.425       .  S
Zr3211     O3214   2.438       .  S
Zr3211     O3217   2.447       .  S
Zr3211     O3219   2.385       .  S
Zr3211     O3220   2.376       .  S
Zr3211     O3221   2.411       .  S
Zr3211     O3222   2.406       .  S
O3212      H3268   0.991       .  S
O3212      H3276   0.990       .  S
O3213      C3233   1.283       .  A
O3214      C3235   1.285       .  A
O3215     Zr3225   2.407       .  S
O3215      C3234   1.280       .  A
O3216     Zr3224   2.437       .  S
O3216      C3235   1.287       .  A
O3217      C3234   1.286       .  A
O3218     Zr3226   2.429       .  S
O3218      C3233   1.282       .  A
O3219     Zr3224   2.394       .  S
O3219     Zr3226   2.380       .  S
O3220     Zr3225   2.379       .  S
O3220     Zr3226   2.373       .  S
O3220      H3255   0.966       .  S
O3221     Zr3224   2.393       .  S
O3221     Zr3241   2.390       .  S
O3221      H3258   0.965       .  S
O3222     Zr3225   2.387       .  S
O3222     Zr3241   2.408       .  S
Zr3223     O3248   2.448       .  S
Zr3223     O3242   2.439       .  S
Zr3223     O3250   2.439       .  S
Zr3223     O3238   2.450       .  S
Zr3223     O3229   2.404       .  S
Zr3223     O3230   2.411       .  S
Zr3223     O3231   2.384       .  S
Zr3223     O3232   2.384       .  S
Zr3224     O3243   2.437       .  S
Zr3224     O3236   2.435       .  S
Zr3224     O3237   2.433       .  S
Zr3224     O3230   2.392       .  S
Zr3224     O3231   2.394       .  S
Zr3225     O3227   2.435       .  S
Zr3225     O3249   2.440       .  S
Zr3225     O3251   2.399       .  S
Zr3225     O3229   2.387       .  S
Zr3225     O3232   2.377       .  S
Zr3226     O3252   2.438       .  S
Zr3226     O3253   2.432       .  S
Zr3226     O3228   2.437       .  S
Zr3226     O3229   2.394       .  S
Zr3226     O3230   2.394       .  S
O3227      H3264   0.990       .  S
O3228      H3259   0.990       .  S
O3228      H3273   0.990       .  S
O3230      H3256   0.966       .  S
O3231     Zr3241   2.375       .  S
O3232     Zr3241   2.374       .  S
O3232      H3257   0.966       .  S
C3235      C3281   1.484       .  S
O3236      H3272   0.990       .  S
O3237      C3239   1.287       .  A
O3238      C3239   1.287       .  A
C3239      C3288   1.491       .  S
O3240     Zr3241   2.432       .  S
O3240      H3269   0.990       .  S
Zr3241     O3244   2.436       .  S
Zr3241     O3245   2.436       .  S
Zr3241     O3246   2.435       .  S
O3242      C3247   1.286       .  A
O3243      H3260   0.990       .  S
O3243      H3275   0.990       .  S
O3244      H3261   0.990       .  S
O3245      H3265   0.990       .  S
O3245      H3274   0.990       .  S
O3246      C3247   1.284       .  A
O3248      H3267   0.990       .  S
O3248      H3271   0.990       .  S
O3249      H3263   0.990       .  S
O3249      H3270   0.990       .  S
O3250      C3254   1.284       .  A
O3251      C3254   1.279       .  A
O3252      H3262   0.990       .  S
O3253      H3266   0.990       .  S
C3277      C3278   1.406       .  A
C3277      C3282   1.408       .  A
C3278      C3279   1.400       .  A
C3278      H3283   1.084       .  S
C3279      C3280   1.402       .  A
C3279      C3743   1.473   1_545  S
C3280      C3281   1.404       .  A
C3280      H3284   1.084       .  S
C3281      C3282   1.408       .  A
C3282      H3285   1.084       .  S
C3286      C3287   1.411       .  A
C3286      C3291   1.404       .  A
C3286      C3331   1.469       .  S
C3287      C3288   1.412       .  A
C3287      H3292   1.083       .  S
C3288      C3289   1.407       .  A
C3289      C3290   1.399       .  A
C3289      H3293   1.084       .  S
C3290      C3291   1.394       .  A
C3290      C3739   1.468   1_545  S
C3291      H3294   1.085       .  S
Zr3295     O3296   2.440       .  S
Zr3295     O3297   2.440   1_655  S
Zr3295     O3298   2.454       .  S
Zr3295     O3301   2.434       .  S
Zr3295     O3305   2.414       .  S
Zr3295     O3306   2.404       .  S
O3296      H3352   0.990       .  S
O3296      H3360   0.990       .  S
O3298      C3319   1.288       .  A
O3299     Zr3981   2.403       .  S
O3299      C3318   1.279       .  A
O3300     Zr3308   2.428       .  S
O3300      C3319   1.286       .  A
O3301      C3990   1.284   1_545  A
O3302     Zr3310   2.425       .  S
O3302      C3317   1.281       .  A
O3303     Zr3310   2.377       .  S
O3304     Zr3310   2.375       .  S
O3304      H3339   0.966       .  S
O3305     Zr3308   2.397       .  S
O3305     Zr3325   2.394       .  S
O3305      H3342   0.966       .  S
O3306     Zr3309   2.383       .  S
O3306     Zr3325   2.393       .  S
Zr3307     O3332   2.444       .  S
Zr3307     O3334   2.439       .  S
Zr3307     O3322   2.429       .  S
Zr3307     O3313   2.405       .  S
Zr3307     O3314   2.406       .  S
Zr3308     O3327   2.436       .  S
Zr3308     O3315   2.388       .  S
Zr3309     O3983   2.438   1_545  S
Zr3309     O3971   2.402   1_545  S
Zr3309     O3316   2.374       .  S
Zr3310     O3336   2.436       .  S
Zr3310     O3337   2.431       .  S
Zr3310     O3312   2.438       .  S
Zr3310     O3313   2.406       .  S
Zr3310     O3314   2.387       .  S
O3311     Zr3981   2.438       .  S
O3311      H3348   0.990       .  S
O3312      H3343   0.990       .  S
O3312      H3357   0.990       .  S
O3314      H3340   0.965       .  S
O3315     Zr3325   2.376       .  S
O3316     Zr3325   2.372       .  S
O3316      H3341   0.965       .  S
C3318      O3973   1.285       .  A
O3320      H3356   0.990       .  S
O3321      C3323   1.287       .  A
O3322      C3323   1.284       .  A
O3324     Zr3325   2.431       .  S
O3324      H3353   0.990       .  S
Zr3325     O3328   2.435       .  S
Zr3325     O3329   2.441       .  S
Zr3325     O3330   2.430       .  S
O3326      C3331   1.285       .  A
O3327      H3344   0.990       .  S
O3327      H3359   0.990       .  S
O3328      H3345   0.990       .  S
O3329      H3349   0.991       .  S
O3329      H3358   0.990       .  S
O3330      C3331   1.282       .  A
O3332      H3351   0.990       .  S
O3332      H3355   0.990       .  S
O3333      H3347   0.990       .  S
O3333      H3354   0.990       .  S
O3334      C4010   1.284   1_545  A
O3335      C3338   1.281       .  A
O3336      H3346   0.990       .  S
O3337      H3350   0.990       .  S
C3338      O4006   1.284       .  A
C3361      C3362   1.409       .  A
C3361      C3366   1.407       .  A
C3361      C3401   1.472       .  S
C3362      C3363   1.409       .  A
C3362      H3367   1.084       .  S
C3363      C3364   1.400       .  A
C3363      C3486   1.482       .  S
C3364      C3365   1.397       .  A
C3364      H3368   1.085       .  S
C3365      C3366   1.400       .  A
C3365      C3674   1.468       .  S
C3366      H3369   1.084       .  S
C3370      C3371   1.402       .  A
C3370      C3375   1.411       .  A
C3370      C3415   1.469       .  S
C3371      C3708   1.394       .  A
C3371      H3376   1.085       .  S
C3372      C3707   1.394   1_554  A
C3372      C3373   1.397       .  A
C3372      C3654   1.464       .  S
C3373      C3374   1.406       .  A
C3373      H3377   1.084       .  S
C3374      C3711   1.411   1_554  A
C3374      C3506   1.488       .  S
C3375      C3710   1.412       .  A
C3375      H3378   1.083       .  S
Zr3379     O3380   2.439       .  S
Zr3379     O3381   2.437   1_655  S
Zr3379     O3382   2.452       .  S
Zr3379     O3385   2.441       .  S
Zr3379     O3389   2.407       .  S
Zr3379     O3390   2.413       .  S
O3380      H3436   0.990       .  S
O3380      H3444   0.990       .  S
O3382      C3403   1.287       .  A
O3383     Zr3393   2.430       .  S
O3383      C3402   1.287       .  A
O3385      C3402   1.286       .  A
O3386     Zr3394   2.426       .  S
O3386      C3401   1.282       .  A
O3387     Zr3394   2.379       .  S
O3388     Zr3394   2.370       .  S
O3388      H3423   0.966       .  S
O3389     Zr3392   2.393       .  S
O3389     Zr3409   2.396       .  S
O3389      H3426   0.965       .  S
O3390     Zr3393   2.389       .  S
O3390     Zr3409   2.397       .  S
Zr3391     O3416   2.444       .  S
Zr3391     O3418   2.439       .  S
Zr3391     O3406   2.453       .  S
Zr3391     O3397   2.407       .  S
Zr3391     O3398   2.407       .  S
Zr3392     O3399   2.380       .  S
Zr3393     O3395   2.435       .  S
Zr3393     O3400   2.389       .  S
Zr3394     O3420   2.438       .  S
Zr3394     O3421   2.432       .  S
Zr3394     O3396   2.436       .  S
Zr3394     O3397   2.389       .  S
Zr3394     O3398   2.403       .  S
O3395      H3432   0.990       .  S
O3396      H3427   0.990       .  S
O3396      H3441   0.990       .  S
O3398      H3424   0.966       .  S
O3399     Zr3409   2.374       .  S
O3400     Zr3409   2.376       .  S
O3400      H3425   0.966       .  S
C3402      C3456   1.488       .  S
O3404      H3440   0.990       .  S
O3406      C3407   1.287       .  A
O3408     Zr3409   2.430       .  S
O3408      H3437   0.990       .  S
Zr3409     O3412   2.438       .  S
Zr3409     O3413   2.437       .  S
Zr3409     O3414   2.428       .  S
O3410      C3415   1.285       .  A
O3411      H3428   0.990       .  S
O3411      H3443   0.990       .  S
O3412      H3429   0.991       .  S
O3413      H3433   0.990       .  S
O3413      H3442   0.990       .  S
O3414      C3415   1.282       .  A
O3416      H3435   0.990       .  S
O3416      H3439   0.990       .  S
O3417      H3431   0.990       .  S
O3417      H3438   0.990       .  S
O3418      C3422   1.286       .  A
O3419      C3422   1.287       .  A
O3420      H3430   0.990       .  S
O3421      H3434   0.990       .  S
C3422      C3447   1.487       .  S
C3445      C3446   1.409       .  A
C3445      C3450   1.408       .  A
C3445      C3835   1.473       .  S
C3446      C3447   1.409       .  A
C3446      H3451   1.084       .  S
C3447      C3448   1.404       .  A
C3448      C3449   1.400       .  A
C3448      H3452   1.084       .  S
C3449      C3450   1.401       .  A
C3449      C3570   1.475       .  S
C3450      H3453   1.084       .  S
C3454      C3455   1.412       .  A
C3454      C3459   1.402       .  A
C3454      C3485   1.469       .  S
C3455      C3456   1.413       .  A
C3455      H3460   1.083       .  S
C3456      C3457   1.404       .  A
C3457      C3458   1.397       .  A
C3457      H3461   1.084       .  S
C3458      C3459   1.394       .  A
C3458      C3590   1.464       .  S
C3459      H3462   1.085       .  S
Zr3463     O3464   2.440       .  S
Zr3463     O3465   2.431       .  S
Zr3463     O3466   2.454       .  S
Zr3463     O3469   2.429       .  S
Zr3463     O3471   2.373       .  S
Zr3463     O3472   2.387       .  S
Zr3463     O3473   2.406       .  S
Zr3463     O3474   2.408       .  S
O3464      H3520   0.990       .  S
O3464      H3528   0.990       .  S
O3465      C3485   1.284       .  A
O3466      C3487   1.286       .  A
O3467     Zr3477   2.432       .  S
O3467      C3486   1.288       .  A
O3468     Zr3476   2.407       .  S
O3468      C3487   1.281       .  A
O3469      C3486   1.284       .  A
O3470     Zr3478   2.428       .  S
O3470      C3485   1.281       .  A
O3471     Zr3476   2.385       .  S
O3471     Zr3478   2.375       .  S
O3472     Zr3477   2.389       .  S
O3472     Zr3478   2.371       .  S
O3472      H3507   0.967       .  S
O3473     Zr3476   2.392       .  S
O3473     Zr3493   2.404       .  S
O3473      H3510   0.966       .  S
O3474     Zr3477   2.381       .  S
O3474     Zr3493   2.389       .  S
Zr3475     O3500   2.449       .  S
Zr3475     O3494   2.437       .  S
Zr3475     O3502   2.448       .  S
Zr3475     O3490   2.457       .  S
Zr3475     O3481   2.411       .  S
Zr3475     O3482   2.405       .  S
Zr3475     O3483   2.379       .  S
Zr3475     O3484   2.390       .  S
Zr3476     O3495   2.434       .  S
Zr3476     O3488   2.436       .  S
Zr3476     O3489   2.408       .  S
Zr3476     O3482   2.392       .  S
Zr3476     O3483   2.380       .  S
Zr3477     O3479   2.437       .  S
Zr3477     O3501   2.437       .  S
Zr3477     O3503   2.425       .  S
Zr3477     O3481   2.386       .  S
Zr3477     O3484   2.389       .  S
Zr3478     O3504   2.435       .  S
Zr3478     O3505   2.428       .  S
Zr3478     O3480   2.436       .  S
Zr3478     O3481   2.396       .  S
Zr3478     O3482   2.390       .  S
O3479      H3516   0.990       .  S
O3480      H3511   0.990       .  S
O3480      H3525   0.990       .  S
O3482      H3508   0.965       .  S
O3483     Zr3493   2.379       .  S
O3484     Zr3493   2.375       .  S
O3484      H3509   0.966       .  S
C3487      C3533   1.474       .  S
O3488      H3524   0.990       .  S
O3489      C3491   1.280       .  A
O3490      C3491   1.288       .  A
C3491      C3542   1.472       .  S
O3492     Zr3493   2.433       .  S
O3492      H3521   0.990       .  S
Zr3493     O3496   2.435       .  S
Zr3493     O3497   2.442       .  S
Zr3493     O3498   2.432       .  S
O3494      C3499   1.286       .  A
O3495      H3512   0.990       .  S
O3495      H3527   0.990       .  S
O3496      H3513   0.990       .  S
O3497      H3517   0.991       .  S
O3497      H3526   0.990       .  S
O3498      C3499   1.283       .  A
C3499      C3781   1.473   1_554  S
O3500      H3519   0.990       .  S
O3500      H3523   0.990       .  S
O3501      H3515   0.990       .  S
O3501      H3522   0.990       .  S
O3502      C3506   1.287       .  A
O3503      C3506   1.286       .  A
O3504      H3514   0.990       .  S
O3505      H3518   0.990       .  S
C3529      C3530   1.408       .  A
C3529      C3534   1.408       .  A
C3529      C3583   1.475       .  S
C3530      C3531   1.409       .  A
C3530      H3535   1.084       .  S
C3531      C3532   1.403       .  A
C3531      C3659   1.483       .  S
C3532      C3533   1.399       .  A
C3532      H3536   1.084       .  S
C3533      C3534   1.402       .  A
C3534      H3537   1.084       .  S
C3538      C3539   1.409       .  A
C3538      C3543   1.404       .  A
C3538      C3569   1.468       .  S
C3539      C3876   1.411       .  A
C3539      H3544   1.083       .  S
C3540      C3875   1.411   1_554  A
C3540      C3541   1.408       .  A
C3540      C3655   1.490       .  S
C3541      C3542   1.403       .  A
C3541      H3545   1.084       .  S
C3542      C3879   1.394   1_554  A
C3543      C3878   1.394       .  A
C3543      H3546   1.085       .  S
Zr3547     O3548   2.440       .  S
Zr3547     O3549   2.427       .  S
Zr3547     O3550   2.438       .  S
Zr3547     O3553   2.448       .  S
Zr3547     O3555   2.386       .  S
Zr3547     O3556   2.376       .  S
Zr3547     O3557   2.412       .  S
Zr3547     O3558   2.406       .  S
O3548      H3604   0.991       .  S
O3548      H3612   0.990       .  S
O3549      C3569   1.283       .  A
O3550      C3571   1.285       .  A
O3551     Zr3561   2.408       .  S
O3551      C3570   1.281       .  A
O3552     Zr3560   2.435       .  S
O3552      C3571   1.286       .  A
O3553      C3570   1.286       .  A
O3554     Zr3562   2.430       .  S
O3554      C3569   1.282       .  A
O3555     Zr3560   2.394       .  S
O3555     Zr3562   2.380       .  S
O3556     Zr3561   2.380       .  S
O3556     Zr3562   2.374       .  S
O3556      H3591   0.966       .  S
O3557     Zr3560   2.394       .  S
O3557     Zr3577   2.390       .  S
O3557      H3594   0.965       .  S
O3558     Zr3561   2.386       .  S
O3558     Zr3577   2.409       .  S
Zr3559     O3584   2.447       .  S
Zr3559     O3578   2.441       .  S
Zr3559     O3586   2.438       .  S
Zr3559     O3574   2.448       .  S
Zr3559     O3565   2.403       .  S
Zr3559     O3566   2.411       .  S
Zr3559     O3567   2.384       .  S
Zr3559     O3568   2.383       .  S
Zr3560     O3579   2.437       .  S
Zr3560     O3572   2.436       .  S
Zr3560     O3573   2.434       .  S
Zr3560     O3566   2.391       .  S
Zr3560     O3567   2.394       .  S
Zr3561     O3563   2.434       .  S
Zr3561     O3585   2.440       .  S
Zr3561     O3587   2.401       .  S
Zr3561     O3565   2.386       .  S
Zr3561     O3568   2.376       .  S
Zr3562     O3588   2.437       .  S
Zr3562     O3589   2.432       .  S
Zr3562     O3564   2.437       .  S
Zr3562     O3565   2.394       .  S
Zr3562     O3566   2.395       .  S
O3563      H3600   0.990       .  S
O3564      H3595   0.990       .  S
O3564      H3609   0.990       .  S
O3566      H3592   0.966       .  S
O3567     Zr3577   2.375       .  S
O3568     Zr3577   2.372       .  S
O3568      H3593   0.965       .  S
C3571      C3617   1.483       .  S
O3572      H3608   0.990       .  S
O3573      C3575   1.288       .  A
O3574      C3575   1.287       .  A
C3575      C3624   1.492       .  S
O3576     Zr3577   2.432       .  S
O3576      H3605   0.990       .  S
Zr3577     O3580   2.436       .  S
Zr3577     O3581   2.437       .  S
Zr3577     O3582   2.437       .  S
O3578      C3583   1.286       .  A
O3579      H3596   0.990       .  S
O3579      H3611   0.990       .  S
O3580      H3597   0.990       .  S
O3581      H3601   0.990       .  S
O3581      H3610   0.990       .  S
O3582      C3583   1.284       .  A
O3584      H3603   0.990       .  S
O3584      H3607   0.990       .  S
O3585      H3599   0.990       .  S
O3585      H3606   0.990       .  S
O3586      C3590   1.284       .  A
O3587      C3590   1.280       .  A
O3588      H3598   0.990       .  S
O3589      H3602   0.990       .  S
C3613      C3614   1.405       .  A
C3613      C3618   1.407       .  A
C3613      C3989   1.470       .  S
C3614      C3615   1.399       .  A
C3614      H3619   1.084       .  S
C3615      C3616   1.401       .  A
C3616      C3617   1.404       .  A
C3616      H3620   1.084       .  S
C3617      C3618   1.408       .  A
C3618      H3621   1.084       .  S
C3622      C3623   1.411       .  A
C3622      C3627   1.404       .  A
C3622      C3667   1.470       .  S
C3623      C3624   1.413       .  A
C3623      H3628   1.083       .  S
C3624      C3625   1.407       .  A
C3625      C3626   1.400       .  A
C3625      H3629   1.084       .  S
C3626      C3627   1.394       .  A
C3627      H3630   1.085       .  S
Zr3631     O3632   2.441       .  S
Zr3631     O3633   2.441   1_655  S
Zr3631     O3634   2.455       .  S
Zr3631     O3637   2.438       .  S
Zr3631     O3641   2.414       .  S
Zr3631     O3642   2.403       .  S
O3632      H3688   0.990       .  S
O3632      H3696   0.990       .  S
O3634      C3655   1.288       .  A
O3635      C3654   1.280       .  A
O3636     Zr3644   2.428       .  S
O3636      C3655   1.285       .  A
O3638     Zr3646   2.423       .  S
O3638      C3653   1.281       .  A
O3639     Zr3646   2.377       .  S
O3640     Zr3646   2.376       .  S
O3640      H3675   0.966       .  S
O3641     Zr3644   2.396       .  S
O3641     Zr3661   2.394       .  S
O3641      H3678   0.966       .  S
O3642     Zr3645   2.382       .  S
O3642     Zr3661   2.394       .  S
Zr3643     O3668   2.443       .  S
Zr3643     O3670   2.441       .  S
Zr3643     O3658   2.429       .  S
Zr3643     O3649   2.404       .  S
Zr3643     O3650   2.409       .  S
Zr3644     O3663   2.435       .  S
Zr3644     O3651   2.386       .  S
Zr3645     O3652   2.375       .  S
Zr3646     O3672   2.436       .  S
Zr3646     O3673   2.431       .  S
Zr3646     O3648   2.439       .  S
Zr3646     O3649   2.405       .  S
Zr3646     O3650   2.387       .  S
O3647      H3684   0.990       .  S
O3648      H3679   0.990       .  S
O3648      H3693   0.990       .  S
O3650      H3676   0.965       .  S
O3651     Zr3661   2.374       .  S
O3652     Zr3661   2.372       .  S
O3652      H3677   0.965       .  S
C3653      C3949   1.470   1_554  S
O3656      H3692   0.990       .  S
O3657      C3659   1.288       .  A
O3658      C3659   1.284       .  A
O3660     Zr3661   2.430       .  S
O3660      H3689   0.990       .  S
Zr3661     O3664   2.435       .  S
Zr3661     O3665   2.440       .  S
Zr3661     O3666   2.431       .  S
O3662      C3667   1.285       .  A
O3663      H3680   0.990       .  S
O3663      H3695   0.990       .  S
O3664      H3681   0.990       .  S
O3665      H3685   0.991       .  S
O3665      H3694   0.989       .  S
O3666      C3667   1.282       .  A
O3668      H3687   0.991       .  S
O3668      H3691   0.990       .  S
O3669      H3683   0.990       .  S
O3669      H3690   0.990       .  S
O3671      C3674   1.281       .  A
O3672      H3682   0.990       .  S
O3673      H3686   0.990       .  S
C3697      C3698   1.408       .  A
C3697      C3702   1.406       .  A
C3697      C3737   1.470       .  S
C3698      C3699   1.408       .  A
C3698      H3703   1.084       .  S
C3699      C3700   1.400       .  A
C3699      C3822   1.481       .  S
C3700      C3701   1.397       .  A
C3700      H3704   1.085       .  S
C3701      C3702   1.400       .  A
C3701      C4010   1.467       .  S
C3702      H3705   1.084       .  S
C3706      C3707   1.402       .  A
C3706      C3711   1.411       .  A
C3706      C3751   1.470       .  S
C3707      H3712   1.085       .  S
C3708      C3709   1.397       .  A
C3708      C3990   1.462       .  S
C3709      C3710   1.405       .  A
C3709      H3713   1.084       .  S
C3710      C3842   1.488       .  S
C3711      H3714   1.083       .  S
Zr3715     O3716   2.440       .  S
Zr3715     O3717   2.436   1_655  S
Zr3715     O3718   2.451       .  S
Zr3715     O3721   2.441       .  S
Zr3715     O3725   2.408       .  S
Zr3715     O3726   2.413       .  S
O3716      H3772   0.990       .  S
O3716      H3780   0.990       .  S
O3718      C3739   1.286       .  A
O3719     Zr3729   2.430       .  S
O3719      C3738   1.287       .  A
O3721      C3738   1.286       .  A
O3722     Zr3730   2.426       .  S
O3722      C3737   1.282       .  A
O3723     Zr3730   2.378       .  S
O3724     Zr3730   2.371       .  S
O3724      H3759   0.966       .  S
O3725     Zr3728   2.394       .  S
O3725     Zr3745   2.397       .  S
O3725      H3762   0.965       .  S
O3726     Zr3729   2.390       .  S
O3726     Zr3745   2.398       .  S
Zr3727     O3752   2.444       .  S
Zr3727     O3754   2.441       .  S
Zr3727     O3742   2.455       .  S
Zr3727     O3733   2.407       .  S
Zr3727     O3734   2.407       .  S
Zr3728     O3735   2.381       .  S
Zr3729     O3731   2.434       .  S
Zr3729     O3736   2.389       .  S
Zr3730     O3756   2.438       .  S
Zr3730     O3757   2.432       .  S
Zr3730     O3732   2.437       .  S
Zr3730     O3733   2.388       .  S
Zr3730     O3734   2.403       .  S
O3731      H3768   0.990       .  S
O3732      H3763   0.990       .  S
O3732      H3777   0.990       .  S
O3734      H3760   0.966       .  S
O3735     Zr3745   2.374       .  S
O3736     Zr3745   2.376       .  S
O3736      H3761   0.966       .  S
C3738      C3792   1.488       .  S
O3740      H3776   0.990       .  S
O3742      C3743   1.288       .  A
O3744     Zr3745   2.431       .  S
O3744      H3773   0.990       .  S
Zr3745     O3748   2.438       .  S
Zr3745     O3749   2.438       .  S
Zr3745     O3750   2.429       .  S
O3746      C3751   1.285       .  A
O3747      H3764   0.990       .  S
O3747      H3779   0.990       .  S
O3748      H3765   0.991       .  S
O3749      H3769   0.990       .  S
O3749      H3778   0.990       .  S
O3750      C3751   1.282       .  A
O3752      H3771   0.990       .  S
O3752      H3775   0.990       .  S
O3753      H3767   0.990       .  S
O3753      H3774   0.990       .  S
O3754      C3758   1.286       .  A
O3755      C3758   1.287       .  A
O3756      H3766   0.990       .  S
O3757      H3770   0.990       .  S
C3758      C3783   1.488       .  S
C3781      C3782   1.410       .  A
C3781      C3786   1.407       .  A
C3782      C3783   1.410       .  A
C3782      H3787   1.084       .  S
C3783      C3784   1.404       .  A
C3784      C3785   1.401       .  A
C3784      H3788   1.084       .  S
C3785      C3786   1.401       .  A
C3785      C3906   1.474       .  S
C3786      H3789   1.084       .  S
C3790      C3791   1.412       .  A
C3790      C3795   1.402       .  A
C3790      C3821   1.468       .  S
C3791      C3792   1.412       .  A
C3791      H3796   1.083       .  S
C3792      C3793   1.404       .  A
C3793      C3794   1.397       .  A
C3793      H3797   1.084       .  S
C3794      C3795   1.394       .  A
C3794      C3926   1.464       .  S
C3795      H3798   1.085       .  S
Zr3799     O3800   2.441       .  S
Zr3799     O3801   2.430       .  S
Zr3799     O3802   2.455       .  S
Zr3799     O3805   2.429       .  S
Zr3799     O3807   2.374       .  S
Zr3799     O3808   2.388       .  S
Zr3799     O3809   2.405       .  S
Zr3799     O3810   2.410       .  S
O3800      H3856   0.990       .  S
O3800      H3864   0.990       .  S
O3801      C3821   1.284       .  A
O3802      C3823   1.287       .  A
O3803     Zr3813   2.431       .  S
O3803      C3822   1.288       .  A
O3804     Zr3812   2.409       .  S
O3804      C3823   1.281       .  A
O3805      C3822   1.284       .  A
O3806     Zr3814   2.425       .  S
O3806      C3821   1.281       .  A
O3807     Zr3812   2.386       .  S
O3807     Zr3814   2.377       .  S
O3808     Zr3813   2.389       .  S
O3808     Zr3814   2.372       .  S
O3808      H3843   0.967       .  S
O3809     Zr3812   2.391       .  S
O3809     Zr3829   2.405       .  S
O3809      H3846   0.966       .  S
O3810     Zr3813   2.382       .  S
O3810     Zr3829   2.389       .  S
Zr3811     O3836   2.448       .  S
Zr3811     O3830   2.437       .  S
Zr3811     O3838   2.447       .  S
Zr3811     O3826   2.458       .  S
Zr3811     O3817   2.410       .  S
Zr3811     O3818   2.404       .  S
Zr3811     O3819   2.379       .  S
Zr3811     O3820   2.388       .  S
Zr3812     O3831   2.434       .  S
Zr3812     O3824   2.435       .  S
Zr3812     O3825   2.410       .  S
Zr3812     O3818   2.391       .  S
Zr3812     O3819   2.380       .  S
Zr3813     O3815   2.437       .  S
Zr3813     O3837   2.436       .  S
Zr3813     O3839   2.426       .  S
Zr3813     O3817   2.385       .  S
Zr3813     O3820   2.387       .  S
Zr3814     O3840   2.434       .  S
Zr3814     O3841   2.428       .  S
Zr3814     O3816   2.436       .  S
Zr3814     O3817   2.394       .  S
Zr3814     O3818   2.388       .  S
O3815      H3852   0.990       .  S
O3816      H3847   0.990       .  S
O3816      H3861   0.990       .  S
O3818      H3844   0.965       .  S
O3819     Zr3829   2.379       .  S
O3820     Zr3829   2.375       .  S
O3820      H3845   0.966       .  S
C3823      C3869   1.475       .  S
O3824      H3860   0.990       .  S
O3825      C3827   1.281       .  A
O3826      C3827   1.288       .  A
C3827      C3878   1.473       .  S
O3828     Zr3829   2.433       .  S
O3828      H3857   0.990       .  S
Zr3829     O3832   2.435       .  S
Zr3829     O3833   2.444       .  S
Zr3829     O3834   2.432       .  S
O3830      C3835   1.286       .  A
O3831      H3848   0.990       .  S
O3831      H3863   0.990       .  S
O3832      H3849   0.990       .  S
O3833      H3853   0.991       .  S
O3833      H3862   0.990       .  S
O3834      C3835   1.284       .  A
O3836      H3855   0.990       .  S
O3836      H3859   0.990       .  S
O3837      H3851   0.990       .  S
O3837      H3858   0.990       .  S
O3838      C3842   1.286       .  A
O3839      C3842   1.286       .  A
O3840      H3850   0.990       .  S
O3841      H3854   0.990       .  S
C3865      C3866   1.408       .  A
C3865      C3870   1.408       .  A
C3865      C3919   1.473       .  S
C3866      C3867   1.408       .  A
C3866      H3871   1.084       .  S
C3867      C3868   1.404       .  A
C3867      C3995   1.483       .  S
C3868      C3869   1.400       .  A
C3868      H3872   1.084       .  S
C3869      C3870   1.401       .  A
C3870      H3873   1.084       .  S
C3874      C3875   1.409       .  A
C3874      C3879   1.404       .  A
C3874      C3905   1.467       .  S
C3875      H3880   1.083       .  S
C3876      C3877   1.409       .  A
C3876      C3991   1.490       .  S
C3877      C3878   1.403       .  A
C3877      H3881   1.084       .  S
C3879      H3882   1.085       .  S
Zr3883     O3884   2.440       .  S
Zr3883     O3885   2.426       .  S
Zr3883     O3886   2.440       .  S
Zr3883     O3889   2.448       .  S
Zr3883     O3891   2.386       .  S
Zr3883     O3892   2.377       .  S
Zr3883     O3893   2.410       .  S
Zr3883     O3894   2.407       .  S
O3884      H3940   0.991       .  S
O3884      H3948   0.990       .  S
O3885      C3905   1.283       .  A
O3886      C3907   1.285       .  A
O3887     Zr3897   2.408       .  S
O3887      C3906   1.280       .  A
O3888     Zr3896   2.437       .  S
O3888      C3907   1.287       .  A
O3889      C3906   1.286       .  A
O3890     Zr3898   2.429       .  S
O3890      C3905   1.282       .  A
O3891     Zr3896   2.395       .  S
O3891     Zr3898   2.380       .  S
O3892     Zr3897   2.380       .  S
O3892     Zr3898   2.374       .  S
O3892      H3927   0.966       .  S
O3893     Zr3896   2.393       .  S
O3893     Zr3913   2.389       .  S
O3893      H3930   0.965       .  S
O3894     Zr3897   2.388       .  S
O3894     Zr3913   2.409       .  S
Zr3895     O3920   2.447       .  S
Zr3895     O3914   2.438       .  S
Zr3895     O3922   2.440       .  S
Zr3895     O3910   2.451       .  S
Zr3895     O3901   2.403       .  S
Zr3895     O3902   2.411       .  S
Zr3895     O3903   2.384       .  S
Zr3895     O3904   2.384       .  S
Zr3896     O3915   2.437       .  S
Zr3896     O3908   2.436       .  S
Zr3896     O3909   2.433       .  S
Zr3896     O3902   2.393       .  S
Zr3896     O3903   2.394       .  S
Zr3897     O3899   2.436       .  S
Zr3897     O3921   2.440       .  S
Zr3897     O3923   2.401       .  S
Zr3897     O3901   2.386       .  S
Zr3897     O3904   2.376       .  S
Zr3898     O3924   2.437       .  S
Zr3898     O3925   2.431       .  S
Zr3898     O3900   2.437       .  S
Zr3898     O3901   2.394       .  S
Zr3898     O3902   2.394       .  S
O3899      H3936   0.990       .  S
O3900      H3931   0.990       .  S
O3900      H3945   0.990       .  S
O3902      H3928   0.966       .  S
O3903     Zr3913   2.375       .  S
O3904     Zr3913   2.373       .  S
O3904      H3929   0.965       .  S
C3907      C3953   1.484       .  S
O3908      H3944   0.990       .  S
O3909      C3911   1.288       .  A
O3910      C3911   1.288       .  A
C3911      C3960   1.492       .  S
O3912     Zr3913   2.432       .  S
O3912      H3941   0.990       .  S
Zr3913     O3916   2.436       .  S
Zr3913     O3917   2.436       .  S
Zr3913     O3918   2.434       .  S
O3914      C3919   1.286       .  A
O3915      H3932   0.990       .  S
O3915      H3947   0.990       .  S
O3916      H3933   0.990       .  S
O3917      H3937   0.990       .  S
O3917      H3946   0.990       .  S
O3918      C3919   1.283       .  A
O3920      H3939   0.990       .  S
O3920      H3943   0.990       .  S
O3921      H3935   0.990       .  S
O3921      H3942   0.990       .  S
O3922      C3926   1.285       .  A
O3923      C3926   1.280       .  A
O3924      H3934   0.990       .  S
O3925      H3938   0.990       .  S
C3949      C3950   1.405       .  A
C3949      C3954   1.408       .  A
C3950      C3951   1.399       .  A
C3950      H3955   1.084       .  S
C3951      C3952   1.402       .  A
C3952      C3953   1.404       .  A
C3952      H3956   1.084       .  S
C3953      C3954   1.408       .  A
C3954      H3957   1.084       .  S
C3958      C3959   1.411       .  A
C3958      C3963   1.404       .  A
C3958      C4003   1.469       .  S
C3959      C3960   1.412       .  A
C3959      H3964   1.083       .  S
C3960      C3961   1.407       .  A
C3961      C3962   1.399       .  A
C3961      H3965   1.084       .  S
C3962      C3963   1.394       .  A
C3963      H3966   1.085       .  S
Zr3967     O3968   2.441       .  S
Zr3967     O3969   2.440   1_655  S
Zr3967     O3970   2.455       .  S
Zr3967     O3973   2.436       .  S
Zr3967     O3977   2.413       .  S
Zr3967     O3978   2.404       .  S
O3968      H4024   0.990       .  S
O3968      H4032   0.990       .  S
O3970      C3991   1.288       .  A
O3971      C3990   1.279       .  A
O3972     Zr3980   2.428       .  S
O3972      C3991   1.285       .  A
O3974     Zr3982   2.424       .  S
O3974      C3989   1.281       .  A
O3975     Zr3982   2.376       .  S
O3976     Zr3982   2.375       .  S
O3976      H4011   0.966       .  S
O3977     Zr3980   2.396       .  S
O3977     Zr3997   2.394       .  S
O3977      H4014   0.966       .  S
O3978     Zr3981   2.382       .  S
O3978     Zr3997   2.394       .  S
Zr3979     O4004   2.444       .  S
Zr3979     O4006   2.440       .  S
Zr3979     O3994   2.429       .  S
Zr3979     O3985   2.406       .  S
Zr3979     O3986   2.409       .  S
Zr3980     O3999   2.435       .  S
Zr3980     O3987   2.387       .  S
Zr3981     O3988   2.374       .  S
Zr3982     O4008   2.436       .  S
Zr3982     O4009   2.431       .  S
Zr3982     O3984   2.440       .  S
Zr3982     O3985   2.408       .  S
Zr3982     O3986   2.388       .  S
O3983      H4020   0.990       .  S
O3984      H4015   0.990       .  S
O3984      H4029   0.990       .  S
O3986      H4012   0.965       .  S
O3987     Zr3997   2.376       .  S
O3988     Zr3997   2.372       .  S
O3988      H4013   0.966       .  S
O3992      H4028   0.990       .  S
O3993      C3995   1.288       .  A
O3994      C3995   1.284       .  A
O3996     Zr3997   2.431       .  S
O3996      H4025   0.990       .  S
Zr3997     O4000   2.434       .  S
Zr3997     O4001   2.441       .  S
Zr3997     O4002   2.432       .  S
O3998      C4003   1.284       .  A
O3999      H4016   0.990       .  S
O3999      H4031   0.990       .  S
O4000      H4017   0.990       .  S
O4001      H4021   0.991       .  S
O4001      H4030   0.990       .  S
O4002      C4003   1.283       .  A
O4004      H4023   0.990       .  S
O4004      H4027   0.990       .  S
O4005      H4019   0.990       .  S
O4005      H4026   0.990       .  S
O4007      C4010   1.281       .  A
O4008      H4018   0.990       .  S
O4009      H4022   0.990       .  S
