geometry optimzed in LAMMPS
_audit_creation_date              2020-11-30 
_audit_creation_method            'lammps2cif' 
_symmetry_space_group_name_H-M    'P1' 
_symmetry_Int_Tables_number       1 
_symmetry_cell_setting            triclinic 
loop_ 
_symmetry_equiv_pos_as_xyz 
  x,y,z 
_cell_length_a                    49.14532955322181 
_cell_length_b                    49.31775872348855 
_cell_length_c                    29.77772843630538 
_cell_angle_alpha                 90.09596319578243 
_cell_angle_beta                  89.61956336607226 
_cell_angle_gamma                 120.96184471890805 
loop_ 
_atom_site_label 
_atom_site_type_symbol 
_atom_site_fract_x 
_atom_site_fract_y 
_atom_site_fract_z 
_atom_site_charge 
In1        In  0.88005668  0.54674560  0.31222179     1.36870
C2          C  0.94032069  0.58590365  0.28763341     0.77070
O3          O  0.88052025  0.57339927  0.37403343    -0.61380
O4          O  0.87913685  0.52988387  0.38195386    -0.52290
C5          C  0.83061529  0.55007448  0.28328770     0.69730
O6          O  0.85835720  0.57379245  0.28437567    -0.47150
C7          C  0.87493996  0.49407463  0.27977033     0.74440
O8          O  0.91741621  0.57714402  0.26109278    -0.59010
O9          O  0.86572812  0.49558265  0.31882469    -0.49100
O10         O  0.93201575  0.57637639  0.32731335    -0.55440
C11         C  0.88024082  0.55337621  0.40072373     0.84620
O12         O  0.82828205  0.52488628  0.29718213    -0.57330
O13         O  0.88550879  0.51901605  0.25699009    -0.60620
In14       In  0.87858547  0.54590286  0.68174520     1.36870
C15         C  0.93752855  0.58346744  0.71156129     0.77070
O16         O  0.86990342  0.51299192  0.73946774    -0.61380
O17         O  0.87833386  0.50079123  0.67451159    -0.52290
C18         C  0.82771978  0.54696878  0.70982862     0.69730
O19         O  0.85544933  0.57065067  0.71236921    -0.47150
C20         C  0.87891823  0.55438880  0.59375188     0.74440
O21         O  0.91404528  0.58403789  0.72768070    -0.59010
O22         O  0.86832611  0.52769967  0.61165549    -0.49100
O23         O  0.93093336  0.56500026  0.67884433    -0.55440
C24         C  0.87360794  0.49396854  0.71563929     0.84620
O25         O  0.82592581  0.52300734  0.69167488    -0.57330
O26         O  0.88827148  0.57707912  0.62091825    -0.60620
In27       In  0.45518740  0.12051814  0.18456036     1.36870
C28         C  0.41729390  0.06079084  0.21032503     0.77070
O29         O  0.42747530  0.12090459  0.12412863    -0.61380
O30         O  0.46811853  0.11726805  0.11389220    -0.52290
C31         C  0.45398036  0.17000506  0.21799494     0.69730
O32         O  0.43328804  0.14188903  0.22785155    -0.47150
C33         C  0.51012375  0.13137266  0.21677557     0.74440
O34         O  0.41129219  0.08219145  0.21944328    -0.59010
O35         O  0.50758287  0.14101930  0.17880832    -0.49100
O36         O  0.44159109  0.06980089  0.18617027    -0.55440
C37         C  0.44624034  0.11960627  0.09635771     0.84620
O38         O  0.47494464  0.17261396  0.19087335    -0.57330
O39         O  0.48478798  0.11788300  0.23949087    -0.60620
In40       In  0.45553569  0.12116071  0.81493015     1.36870
C41         C  0.41953349  0.06206539  0.78530196     0.77070
O42         O  0.48982375  0.12941756  0.75866308    -0.61380
O43         O  0.50563512  0.13415694  0.82598754    -0.52290
C44         C  0.45386445  0.17068691  0.78371774     0.69730
O45         O  0.43637802  0.14314138  0.76865940    -0.47150
C46         C  0.44596067  0.11987765  0.90318616     0.74440
O47         O  0.41070661  0.08189432  0.78273810    -0.59010
O48         O  0.46874954  0.11912378  0.88529388    -0.49100
O49         O  0.44512883  0.07181330  0.80586458    -0.55440
C50         C  0.51173521  0.13383597  0.78497522     0.84620
O51         O  0.47217227  0.17288312  0.81477150    -0.57330
O52         O  0.42634634  0.11948281  0.87566375    -0.60620
In53       In  0.45738827  0.33288914  0.68853557     1.36870
C54         C  0.41927792  0.35394025  0.71473246     0.77070
O55         O  0.49013425  0.36264872  0.74426182    -0.61380
O56         O  0.50793885  0.37154251  0.67762308    -0.52290
C57         C  0.45355207  0.28000745  0.71661294     0.69730
O58         O  0.43066908  0.28462318  0.72022688    -0.47150
C59         C  0.45018164  0.32383215  0.60048425     0.74440
O60         O  0.42441358  0.33612168  0.73886930    -0.59010
O61         O  0.47244147  0.34840034  0.61820336    -0.49100
O62         O  0.43209301  0.35936326  0.67651668    -0.55440
C63         C  0.51310035  0.37939882  0.71826954     0.84620
O64         O  0.47802225  0.30210694  0.69807609    -0.57330
O65         O  0.43054504  0.30370085  0.62804873    -0.60620
In66       In  0.45653328  0.33189246  0.31851219     1.36870
C67         C  0.41548247  0.34963678  0.29774837     0.77070
O68         O  0.42916677  0.30503789  0.38037458    -0.61380
O69         O  0.47338673  0.34763906  0.38811930    -0.52290
C70         C  0.45493026  0.28018066  0.28807706     0.69730
O71         O  0.43964210  0.29138962  0.27024016    -0.47150
C72         C  0.50940262  0.37685754  0.27893057     0.74440
O73         O  0.40983823  0.32200497  0.29073908    -0.59010
O74         O  0.50774214  0.37106420  0.32035424    -0.49100
O75         O  0.44095537  0.36733849  0.31814750    -0.55440
C76         C  0.45009578  0.32434925  0.40700305     0.84620
O77         O  0.47084800  0.29543344  0.32175687    -0.57330
O78         O  0.48452426  0.35867915  0.25758895    -0.60620
In79       In  0.66776041  0.54518773  0.18352526     1.36870
C80         C  0.64698485  0.58168798  0.21609970     0.77070
O81         O  0.68451385  0.57901023  0.12457132    -0.61380
O82         O  0.66790364  0.53046159  0.11300270    -0.52290
C83         C  0.72062277  0.54989137  0.21543536     0.69730
O84         O  0.70466597  0.55895502  0.23710748    -0.47150
C85         C  0.61971848  0.48816323  0.20738461     0.74440
O86         O  0.67532755  0.58854552  0.22072071    -0.59010
O87         O  0.62280566  0.49948784  0.16864095    -0.49100
O88         O  0.63032688  0.55756337  0.19244531    -0.55440
C89         C  0.67843451  0.55751808  0.09629422     0.84620
O90         O  0.70982601  0.53885838  0.17718752    -0.57330
O91         O  0.64203464  0.50548823  0.23356259    -0.60620
In92       In  0.66895036  0.54840359  0.81494579     1.36870
C93         C  0.65570005  0.59071818  0.78267839     0.77070
O94         O  0.64145331  0.51428516  0.76026109    -0.61380
O95         O  0.62885244  0.49811788  0.82735161    -0.52290
C96         C  0.71884733  0.54788244  0.78153280     0.69730
O97         O  0.70953391  0.56552864  0.76617298    -0.47150
C98         C  0.67585965  0.55858930  0.90328661     0.74440
O99         O  0.68322344  0.59874674  0.79553920    -0.59010
O100        O  0.64913178  0.54489280  0.88460950    -0.49100
O101        O  0.63540242  0.56198511  0.78827676    -0.55440
C102        C  0.62283809  0.49218440  0.78614039     0.84620
O103        O  0.70262326  0.53045551  0.81387928    -0.57330
O104        O  0.69901115  0.56807052  0.87668383    -0.60620
In105      In  0.33805916  0.87699340  0.31640171     1.36870
C106        C  0.35818811  0.93465905  0.28416873     0.77070
O107        O  0.31510005  0.88497761  0.37745457    -0.61380
O108        O  0.35186598  0.87522913  0.38678542    -0.52290
C109        C  0.28499856  0.82575516  0.28902649     0.69730
O110        O  0.28923555  0.85311434  0.28634248    -0.47150
C111        C  0.38494082  0.87018698  0.28489575     0.74440
O112        O  0.33559483  0.91001547  0.26704437    -0.59010
O113        O  0.37541494  0.86437431  0.32498388    -0.49100
O114        O  0.36988813  0.92985190  0.31863049    -0.55440
C115        C  0.33268326  0.88166142  0.40481938     0.84620
O116        O  0.30724546  0.82435546  0.30723593    -0.57330
O117        O  0.36975764  0.87856240  0.26035343    -0.60620
In118      In  0.33812059  0.87649470  0.68597660     1.36870
C119        C  0.35851094  0.93588525  0.71060928     0.77070
O120        O  0.37621998  0.88416886  0.73463862    -0.61380
O121        O  0.36691876  0.85278638  0.68085802    -0.52290
C122        C  0.28400755  0.82709948  0.71640210     0.69730
O123        O  0.29884158  0.85274886  0.73749564    -0.47150
C124        C  0.33348879  0.88188824  0.59826497     0.74440
O125        O  0.33731982  0.91234370  0.73210860    -0.59010
O126        O  0.35379527  0.87692066  0.61591224    -0.49100
O127        O  0.36744590  0.92870742  0.67516816    -0.55440
C128        C  0.38340842  0.86620957  0.71486495     0.84620
O129        O  0.29606753  0.82737189  0.67896952    -0.57330
O130        O  0.31486047  0.88380938  0.62590328    -0.60620
In131      In  0.12534202  0.66318225  0.18400391     1.36870
C132        C  0.06749355  0.64391211  0.21569785     0.77070
O133        O  0.11084536  0.67968873  0.12267456    -0.61380
O134        O  0.13839276  0.65821278  0.11402260    -0.52290
C135        C  0.17559135  0.71518021  0.21620857     0.69730
O136        O  0.14795174  0.70424339  0.23158189    -0.47150
C137        C  0.13084388  0.61532444  0.21290896     0.74440
O138        O  0.08816212  0.67285841  0.21167203    -0.59010
O139        O  0.12212575  0.61679620  0.17378409    -0.49100
O140        O  0.07603337  0.62535860  0.20168001    -0.55440
C141        C  0.12366312  0.66978972  0.09572911     0.84620
O142        O  0.17743847  0.69968519  0.18390672    -0.57330
O143        O  0.13777179  0.63898196  0.23722722    -0.60620
In144      In  0.12240563  0.66177824  0.81439913     1.36870
C145        C  0.06416141  0.64174879  0.78395673     0.77070
O146        O  0.13383331  0.63941834  0.75713488    -0.61380
O147        O  0.12213910  0.61647049  0.82048943    -0.52290
C148        C  0.17331050  0.71537041  0.78725888     0.69730
O149        O  0.14543874  0.70903351  0.77979828    -0.47150
C150        C  0.12159077  0.66852804  0.90282464     0.74440
O151        O  0.08783501  0.66806628  0.77299918    -0.59010
O152        O  0.13450070  0.65522993  0.88376206    -0.49100
O153        O  0.07024768  0.62609781  0.81118919    -0.55440
C154        C  0.12980088  0.61619354  0.78018561     0.84620
O155        O  0.17501695  0.69474074  0.80983229    -0.57330
O156        O  0.10998205  0.67987692  0.87650610    -0.60620
In157      In  0.66541786  0.12177855  0.31445610     1.36870
C158        C  0.64361067  0.06416749  0.28079055     0.77070
O159        O  0.67971116  0.10852158  0.37886246    -0.61380
O160        O  0.66157519  0.13922431  0.38209938    -0.52290
C161        C  0.72051629  0.17105740  0.28779213     0.69730
O162        O  0.71712488  0.14425618  0.29505862    -0.47150
C163        C  0.61921515  0.12894094  0.28219798     0.74440
O164        O  0.66831676  0.08808774  0.26563357    -0.59010
O165        O  0.61830034  0.11816442  0.32087459    -0.49100
O166        O  0.63114442  0.06965490  0.31385866    -0.55440
C167        C  0.67132302  0.12386261  0.40332053     0.84620
O168        O  0.69595384  0.17237837  0.29488177    -0.57330
O169        O  0.64396633  0.13604617  0.26004688    -0.60620
In170      In  0.66693233  0.12499918  0.68600375     1.36870
C171        C  0.64674423  0.06562373  0.70987157     0.77070
O172        O  0.64304425  0.13452805  0.74300690    -0.61380
O173        O  0.62448531  0.13012490  0.67747591    -0.52290
C174        C  0.72037681  0.17403854  0.71700964     0.69730
O175        O  0.70382093  0.14921519  0.73956294    -0.47150
C176        C  0.67099037  0.12420220  0.59726416     0.74440
O177        O  0.67589562  0.08627740  0.70715658    -0.59010
O178        O  0.66082149  0.13956510  0.61796933    -0.49100
O179        O  0.62847184  0.07539817  0.69956677    -0.55440
C180        C  0.62190638  0.13402307  0.71872650     0.84620
O181        O  0.71031626  0.17309804  0.67799498    -0.57330
O182        O  0.68022430  0.10983679  0.62218406    -0.60620
In183      In  0.87981793  0.33595946  0.18425510     1.36870
C184        C  0.93815049  0.35723557  0.21544186     0.77070
O185        O  0.89232749  0.31829286  0.12200922    -0.61380
O186        O  0.86464250  0.33975024  0.11507374    -0.52290
C187        C  0.83069229  0.28215579  0.21489894     0.69730
O188        O  0.85783117  0.28583465  0.20920317    -0.47150
C189        C  0.87518695  0.38414002  0.21427128     0.74440
O190        O  0.91397199  0.33341993  0.23181054    -0.59010
O191        O  0.88214917  0.38201926  0.17417192    -0.49100
O192        O  0.93237152  0.36963006  0.18285383    -0.55440
C193        C  0.87915172  0.32807301  0.09589360     0.84620
O194        O  0.82848289  0.30549506  0.20323311    -0.57330
O195        O  0.86977795  0.36118494  0.23912282    -0.60620
In196      In  0.88199046  0.33882713  0.81426853     1.36870
C197        C  0.93909738  0.35703327  0.78017139     0.77070
O198        O  0.88439701  0.37088825  0.75900942    -0.61380
O199        O  0.87079395  0.37724005  0.82403702    -0.52290
C200        C  0.83033454  0.28561212  0.78793411     0.69730
O201        O  0.85761362  0.28927658  0.78721105    -0.47150
C202        C  0.88468802  0.33303047  0.90270639     0.74440
O203        O  0.91371749  0.33687827  0.76150755    -0.59010
O204        O  0.87966085  0.35298132  0.88441115    -0.49100
O205        O  0.93529613  0.36710784  0.81724352    -0.55440
C206        C  0.87670476  0.38655291  0.78392681     0.84620
O207        O  0.82946045  0.30884674  0.80358049    -0.57330
O208        O  0.88839726  0.31551724  0.87550017    -0.60620
In209      In  0.54843356  0.87796056  0.18119487     1.36870
C210        C  0.58434943  0.93785556  0.20748139     0.77070
O211        O  0.57886304  0.88911128  0.11879356    -0.61380
O212        O  0.52856862  0.86378529  0.11286557    -0.52290
C213        C  0.55358747  0.82948971  0.20915556     0.69730
O214        O  0.57290654  0.85766319  0.22054968    -0.47150
C215        C  0.49441173  0.86939153  0.21582756     0.74440
O216        O  0.58524018  0.91556012  0.22669304    -0.59010
O217        O  0.50284869  0.87769145  0.17585421    -0.49100
O218        O  0.56711490  0.92966530  0.17320434    -0.55440
C219        C  0.55507117  0.87684479  0.09311348     0.84620
O220        O  0.53291927  0.82671186  0.18172165    -0.57330
O221        O  0.51312605  0.86435987  0.23787555    -0.60620
In222      In  0.55028910  0.87983200  0.81063493     1.36870
C223        C  0.58710190  0.93794033  0.77714155     0.77070
O224        O  0.51303331  0.86210551  0.75724789    -0.61380
O225        O  0.50574926  0.88166137  0.81601657    -0.52290
C226        C  0.55622784  0.83107004  0.78711391     0.69730
O227        O  0.58001021  0.85851705  0.79222191    -0.47150
C228        C  0.55459539  0.87783876  0.89936992     0.74440
O229        O  0.58168869  0.91346136  0.75616023    -0.59010
O230        O  0.52856820  0.86670535  0.87914354    -0.49100
O231        O  0.57477586  0.93273892  0.81564808    -0.55440
C232        C  0.49503508  0.86883401  0.77844868     0.84620
O233        O  0.53004318  0.82904140  0.79468661    -0.57330
O234        O  0.57862718  0.88898637  0.87398812    -0.60620
In235      In  0.55075745  0.66873605  0.31638941     1.36870
C236        C  0.58878055  0.64764739  0.29287793     0.77070
O237        O  0.57905053  0.69599692  0.37737264    -0.61380
O238        O  0.53457119  0.65368279  0.38660685    -0.52290
C239        C  0.55407421  0.72088264  0.28390489     0.69730
O240        O  0.57487383  0.71385965  0.27562663    -0.47150
C241        C  0.49658261  0.62109494  0.28358377     0.74440
O242        O  0.58763360  0.66889385  0.27095525    -0.59010
O243        O  0.49808027  0.63430969  0.32039436    -0.49100
O244        O  0.57267966  0.63943009  0.32869552    -0.55440
C245        C  0.55820282  0.67683697  0.40467009     0.84620
O246        O  0.53244012  0.70172584  0.30990443    -0.57330
O247        O  0.52249337  0.63332119  0.26251978    -0.60620
In248      In  0.55148833  0.66836086  0.68651906     1.36870
C249        C  0.59349479  0.65251703  0.71215299     0.77070
O250        O  0.52219427  0.62905893  0.73532513    -0.61380
O251        O  0.49898733  0.63367464  0.67887949    -0.52290
C252        C  0.55529208  0.72050018  0.71993487     0.69730
O253        O  0.57891840  0.71709730  0.71710542    -0.47150
C254        C  0.55756892  0.67558585  0.59794447     0.74440
O255        O  0.57885535  0.66011171  0.73945098    -0.59010
O256        O  0.53666428  0.65037702  0.61660281    -0.49100
O257        O  0.58732929  0.65419058  0.67162814    -0.55440
C258        C  0.49655448  0.61865494  0.71436358     0.84620
O259        O  0.52994537  0.69739628  0.70553676    -0.57330
O260        O  0.57592099  0.69712449  0.62457887    -0.60620
In261      In  0.12551014  0.45314244  0.31139131     1.36870
C262        C  0.06598000  0.41699532  0.28409585     0.77070
O263        O  0.11010254  0.42300325  0.37419586    -0.61380
O264        O  0.14140104  0.47242991  0.38009834    -0.52290
C265        C  0.17417072  0.44867417  0.28069601     0.69730
O266        O  0.14656066  0.42495956  0.28446104    -0.47150
C267        C  0.13158293  0.50570899  0.27783962     0.74440
O268        O  0.08826819  0.41369670  0.26941133    -0.59010
O269        O  0.13382600  0.50197538  0.31919848    -0.49100
O270        O  0.07413455  0.43791335  0.31387723    -0.55440
C271        C  0.12505201  0.44636324  0.39991203     0.84620
O272        O  0.17677269  0.47418796  0.29356027    -0.57330
O273        O  0.12741825  0.48302030  0.25331239    -0.60620
In274      In  0.12579638  0.45427425  0.68181839     1.36870
C275        C  0.06561812  0.41685462  0.70639235     0.77070
O276        O  0.13125796  0.48703312  0.73859600    -0.61380
O277        O  0.13504707  0.50316954  0.67179987    -0.52290
C278        C  0.17318847  0.44858484  0.71404702     0.69730
O279        O  0.14588226  0.43484402  0.73133795    -0.47150
C280        C  0.12401210  0.44660723  0.59337434     0.74440
O281        O  0.08553157  0.40796718  0.70807617    -0.59010
O282        O  0.14044373  0.47287468  0.61245625    -0.49100
O283        O  0.07628693  0.44414485  0.69042663    -0.55440
C284        C  0.13429329  0.50871878  0.71287128     0.84620
O285        O  0.17613960  0.46488368  0.67994180    -0.57330
O286        O  0.10927700  0.42343992  0.61976695    -0.60620
In287      In  0.33869277  0.45204614  0.18720553     1.36870
C288        C  0.35544920  0.41320647  0.22337273     0.77070
O289        O  0.32272509  0.42293333  0.12364279    -0.61380
O290        O  0.34172328  0.47221042  0.11846816    -0.52290
C291        C  0.28485664  0.44822062  0.21366261     0.69730
O292        O  0.28634699  0.42408211  0.20401548    -0.47150
C293        C  0.38733852  0.50614505  0.21759481     0.74440
O294        O  0.33226714  0.41498067  0.23789508    -0.59010
O295        O  0.38754764  0.49492025  0.17956853    -0.49100
O296        O  0.36945081  0.43085837  0.19023106    -0.55440
C297        C  0.33020623  0.44617424  0.09826954     0.84620
O298        O  0.31080343  0.47391296  0.20945294    -0.57330
O299        O  0.36216756  0.48949118  0.23981718    -0.60620
In300      In  0.33534526  0.45368375  0.81576872     1.36870
C301        C  0.35667517  0.41690595  0.78656537     0.77070
O302        O  0.35721897  0.49026190  0.76029045    -0.61380
O303        O  0.38349378  0.49726514  0.81928768    -0.52290
C304        C  0.28163828  0.44791424  0.78635233     0.69730
O305        O  0.28874138  0.42701437  0.77965568    -0.47150
C306        C  0.32618364  0.44669968  0.90440529     0.74680
O307        O  0.33061663  0.41324107  0.77358698    -0.59010
O308        O  0.33897916  0.47312156  0.88502027    -0.49100
O309        O  0.37062889  0.43799372  0.81582268    -0.55440
C310        C  0.38269498  0.50760103  0.78103409     0.84620
O311        O  0.30167248  0.47129005  0.80896146    -0.57330
O312        O  0.31675530  0.42349383  0.87821604    -0.60620
C313        C  0.33561550  0.42644906  0.97609295    -0.02360
C314        C  0.32394291  0.44363946  0.95391268     0.07320
C315        C  0.31256561  0.45993648  0.97941500    -0.02470
C316        C  0.31303606  0.45924446  0.02662514    -0.02480
C317        C  0.32622633  0.44348387  0.04884212     0.07450
C318        C  0.33711183  0.42670619  0.02335019    -0.02670
Br319      Br  0.35674329  0.40629326  0.05242400    -0.01220
Br320      Br  0.35239288  0.40485994  0.94186292    -0.01290
Br321      Br  0.29419823  0.47880365  0.06074405    -0.01250
Br322      Br  0.29610474  0.48326258  0.95003956    -0.01240
C323        C  0.21885608  0.43985067  0.70464557    -0.02360
C324        C  0.19978873  0.44647241  0.73282298     0.07320
C325        C  0.20682096  0.45209843  0.77893171    -0.02470
C326        C  0.23298332  0.45152737  0.79661221    -0.02480
C327        C  0.25261094  0.44578473  0.76833019     0.07450
C328        C  0.24527667  0.43963362  0.72230028    -0.02670
Br329      Br  0.27241539  0.43278631  0.68259085    -0.01220
Br330      Br  0.20838117  0.43020963  0.64198202    -0.01290
Br331      Br  0.24111265  0.45762012  0.86009348    -0.01250
Br332      Br  0.18195465  0.46269673  0.81772834    -0.01240
C333        C  0.20785515  0.42392203  0.27675315    -0.02360
C334        C  0.20136062  0.44719005  0.26202845     0.07320
C335        C  0.22155681  0.46989745  0.23009427    -0.02470
C336        C  0.24849045  0.46988394  0.21384722    -0.02480
C337        C  0.25540155  0.44692645  0.22902690     0.07450
C338        C  0.23477142  0.42376612  0.26033911    -0.02670
Br339      Br  0.24440999  0.39317711  0.28386533    -0.01220
Br340      Br  0.18122487  0.39353614  0.32191868    -0.01290
Br341      Br  0.27517721  0.50114345  0.16960495    -0.01250
Br342      Br  0.21171677  0.50046796  0.20675318    -0.01240
C343        C  0.11555500  0.46498726  0.51994983    -0.02360
C344        C  0.12164063  0.44405855  0.54399550     0.07320
C345        C  0.12662105  0.42207597  0.52055036    -0.02470
C346        C  0.12707064  0.42214503  0.47317029    -0.02480
C347        C  0.12253880  0.44419283  0.44930748     0.07450
C348        C  0.11599749  0.46505974  0.47285063    -0.02670
Br349      Br  0.10613824  0.49301397  0.44072561    -0.01220
Br350      Br  0.10515011  0.49286673  0.55130341    -0.01290
Br351      Br  0.13584826  0.39339448  0.44120425    -0.01250
Br352      Br  0.13477828  0.39321546  0.55307974    -0.01240
C353        C  0.45706989  0.58920392  0.77581737    -0.02360
C354        C  0.46622627  0.59115153  0.73036646     0.07320
C355        C  0.44653990  0.56654575  0.70060684    -0.02470
C356        C  0.41838167  0.53978762  0.71643093    -0.02480
C357        C  0.40987383  0.53727133  0.76243488     0.07450
C358        C  0.42886180  0.56269237  0.79161044    -0.02670
Br359      Br  0.41552940  0.56250888  0.85298271    -0.01220
Br360      Br  0.48269156  0.62319332  0.81685712    -0.01290
Br361      Br  0.39264991  0.50627314  0.67470939    -0.01250
Br362      Br  0.45940146  0.56806022  0.63873228    -0.01240
C363        C  0.45863277  0.59020615  0.22178098    -0.02360
C364        C  0.46735242  0.59273536  0.26732268     0.07320
C365        C  0.44903434  0.56725279  0.29688818    -0.02470
C366        C  0.42273725  0.53915191  0.28079227    -0.02480
C367        C  0.41440187  0.53622550  0.23488173     0.07450
C368        C  0.43222666  0.56216381  0.20563052    -0.02670
Br369      Br  0.41983015  0.56036159  0.14370807    -0.01220
Br370      Br  0.48202537  0.62573376  0.18163234    -0.01290
Br371      Br  0.39967981  0.50418024  0.32194849    -0.01250
Br372      Br  0.46104971  0.56963266  0.35918223    -0.01240
C373        C  0.58671509  0.68435741  0.52492915    -0.02360
C374        C  0.55964850  0.67947570  0.54872700     0.07320
C375        C  0.53364415  0.67686729  0.52526118    -0.02470
C376        C  0.53402488  0.67767798  0.47808405    -0.02480
C377        C  0.56031793  0.68075287  0.45399960     0.07450
C378        C  0.58704051  0.68490789  0.47753673    -0.02670
Br379      Br  0.62307424  0.68893626  0.44512743    -0.01220
Br380      Br  0.62239051  0.68807503  0.55722379    -0.01290
Br381      Br  0.49870484  0.67548194  0.44652974    -0.01250
Br382      Br  0.49765001  0.67281521  0.55798467    -0.01240
C383        C  0.53592873  0.77293312  0.78947368    -0.02360
C384        C  0.55815505  0.80331319  0.77257116     0.07320
C385        C  0.58032845  0.80640974  0.73938002    -0.02470
C386        C  0.57987491  0.77935968  0.72289020    -0.02480
C387        C  0.55693466  0.74905528  0.73873786     0.07450
C388        C  0.53497188  0.74596311  0.77199186    -0.02670
Br389      Br  0.50364703  0.70470189  0.79452215    -0.01220
Br390      Br  0.50724632  0.76775356  0.83805602    -0.01290
Br391      Br  0.60907380  0.78370301  0.67574710    -0.01250
Br392      Br  0.60986220  0.84717646  0.71342183    -0.01240
C393        C  0.58324215  0.77749268  0.25664942    -0.02360
C394        C  0.55436917  0.74873595  0.26422266     0.07320
C395        C  0.52541720  0.74661208  0.25292526    -0.02470
C396        C  0.52524625  0.77319257  0.23619408    -0.02480
C397        C  0.55413184  0.80174813  0.22756718     0.07450
C398        C  0.58314704  0.80360352  0.23748575    -0.02670
Br399      Br  0.62315445  0.84139674  0.22338399    -0.01220
Br400      Br  0.62319703  0.78214681  0.27440549    -0.01290
Br401      Br  0.48478371  0.77040761  0.22835762    -0.01250
Br402      Br  0.48550540  0.70682913  0.25763583    -0.01240
C403        C  0.57457263  0.86806662  0.01934262    -0.02360
C404        C  0.55731692  0.87890405  0.04366875     0.07320
C405        C  0.54068075  0.89081804  0.02056191    -0.02470
C406        C  0.54028236  0.89081528  0.97342083    -0.02480
C407        C  0.55652166  0.87887940  0.94890942     0.07450
C408        C  0.57415816  0.86801598  0.97194794    -0.02670
Br409      Br  0.59612046  0.85122715  0.93886946    -0.01220
Br410      Br  0.59718347  0.85159408  0.05089104    -0.01290
Br411      Br  0.51860436  0.90873478  0.94261783    -0.01250
Br412      Br  0.51942064  0.90858329  0.05347979    -0.01240
C413        C  0.99567639  0.37091702  0.78531487    -0.02360
C414        C  0.97069893  0.36883553  0.75954464     0.07320
C415        C  0.97645761  0.37965531  0.71460970    -0.02470
C416        C  0.00741245  0.39435144  0.69667948    -0.02480
C417        C  0.03265128  0.39768519  0.72313333     0.07450
C418        C  0.02656393  0.38519965  0.76713205    -0.02670
Br419      Br  0.06080901  0.38965925  0.80402647    -0.01220
Br420      Br  0.98746798  0.35352146  0.84532436    -0.01290
Br421      Br  0.01519344  0.40989962  0.63557274    -0.01250
Br422      Br  0.94251670  0.37611822  0.67785393    -0.01240
C423        C  0.00709241  0.38746541  0.29665686    -0.02360
C424        C  0.03315522  0.39894070  0.26675246     0.07320
C425        C  0.02774627  0.39525134  0.22000207    -0.02470
C426        C  0.99659182  0.38062242  0.20335112    -0.02480
C427        C  0.97060026  0.37012196  0.23321102     0.07450
C428        C  0.97598429  0.37347118  0.27997175    -0.02670
Br429      Br  0.94118995  0.36131103  0.32156322    -0.01220
Br430      Br  0.01372763  0.39024029  0.36082789    -0.01290
Br431      Br  0.98977998  0.37458928  0.13931386    -0.01250
Br432      Br  0.06294596  0.41231988  0.17803355    -0.01240
C433        C  0.90219928  0.35900738  0.97753205    -0.02360
C434        C  0.88596655  0.33090538  0.95211672     0.07320
C435        C  0.86916156  0.30140490  0.97440922    -0.02470
C436        C  0.86764589  0.30023305  0.02173988    -0.02480
C437        C  0.88248396  0.32843362  0.04671580     0.07450
C438        C  0.90021075  0.35774112  0.02462759    -0.02670
Br439      Br  0.92227173  0.39630600  0.05920686    -0.01220
Br440      Br  0.92815971  0.39944798  0.94821279    -0.01290
Br441      Br  0.84377439  0.26023572  0.05243738    -0.01250
Br442      Br  0.84611296  0.26270302  0.94058113    -0.01240
C443        C  0.63095453  0.99473930  0.78042310    -0.02360
C444        C  0.60491449  0.97005706  0.75758680     0.07320
C445        C  0.59417022  0.97662971  0.71764389    -0.02470
C446        C  0.60895814  0.00768044  0.70089458    -0.02480
C447        C  0.63437186  0.03261593  0.72442450     0.07450
C448        C  0.64570358  0.02598020  0.76390739    -0.02670
Br449      Br  0.67975439  0.05978724  0.79753157    -0.01220
Br450      Br  0.64629224  0.98571470  0.83453631    -0.01290
Br451      Br  0.59425892  0.01577954  0.64524489    -0.01250
Br452      Br  0.55721117  0.94369249  0.68783441    -0.01240
C453        C  0.79771804  0.22664733  0.77818951    -0.02360
C454        C  0.80192011  0.25687940  0.77068936     0.07320
C455        C  0.77916859  0.25965456  0.74552493    -0.02470
C456        C  0.75232869  0.23247373  0.72864260    -0.02480
C457        C  0.74855581  0.20238128  0.73524216     0.07450
C458        C  0.77135097  0.19955589  0.75999259    -0.02670
Br459      Br  0.76740359  0.15875262  0.76740760    -0.01220
Br460      Br  0.82712522  0.22174551  0.81507968    -0.01290
Br461      Br  0.71988438  0.23667363  0.69857985    -0.01250
Br462      Br  0.78517251  0.30069782  0.73150376    -0.01240
C463        C  0.59734261  0.01672907  0.24708928    -0.02360
C464        C  0.62930738  0.03236156  0.26069660     0.07320
C465        C  0.64685077  0.01715238  0.25623524    -0.02470
C466        C  0.63236160  0.98624065  0.23861690    -0.02480
C467        C  0.60033564  0.97057313  0.22502183     0.07450
C468        C  0.58289603  0.98600131  0.22933960    -0.02670
Br469      Br  0.53844273  0.96462781  0.21358099    -0.01220
Br470      Br  0.57327529  0.03768931  0.25167932    -0.01290
Br471      Br  0.65673866  0.96583716  0.23206974    -0.01250
Br472      Br  0.69023275  0.03805541  0.27641008    -0.01240
C473        C  0.76069957  0.22897147  0.29014989    -0.02360
C474        C  0.75044031  0.19886611  0.27156483     0.07320
C475        C  0.76770041  0.19600065  0.23559121    -0.02470
C476        C  0.79441644  0.22316039  0.21757157    -0.02480
C477        C  0.80378100  0.25331348  0.23500183     0.07450
C478        C  0.78720737  0.25603978  0.27189755    -0.02670
Br479      Br  0.80170943  0.29677510  0.29917581    -0.01220
Br480      Br  0.73929245  0.23333089  0.34193574    -0.01290
Br481      Br  0.81699334  0.21912670  0.16721118    -0.01250
Br482      Br  0.75358845  0.15532419  0.20840666    -0.01240
C483        C  0.69855195  0.12840620  0.47647434    -0.02360
C484        C  0.67138636  0.12295675  0.45289408     0.07320
C485        C  0.64379479  0.11649166  0.47684112    -0.02470
C486        C  0.64364337  0.11638305  0.52402039    -0.02480
C487        C  0.67108801  0.12273958  0.54770847     0.07450
C488        C  0.69841283  0.12830332  0.52383475    -0.02670
Br489      Br  0.73632532  0.13762769  0.55574299    -0.01220
Br490      Br  0.73659212  0.13781788  0.44406838    -0.01290
Br491      Br  0.60498086  0.10575177  0.55599743    -0.01250
Br492      Br  0.60532098  0.10593362  0.44523077    -0.01240
C493        C  0.15115107  0.57983570  0.78381743    -0.02360
C494        C  0.13284850  0.59016955  0.76148843     0.07320
C495        C  0.11589116  0.57436820  0.72263486    -0.02470
C496        C  0.11652676  0.54784725  0.70676463    -0.02480
C497        C  0.13485205  0.53739126  0.72901556     0.07450
C498        C  0.15234500  0.55364748  0.76745460    -0.02670
Br499      Br  0.17881433  0.54087630  0.79712678    -0.01220
Br500      Br  0.17545751  0.60215532  0.83614805    -0.01290
Br501      Br  0.08958003  0.52435627  0.65694484    -0.01250
Br502      Br  0.08965035  0.58744414  0.69286585    -0.01240
C503        C  0.10483859  0.55690570  0.22268279    -0.02360
C504        C  0.13154090  0.58744241  0.22913460     0.07320
C505        C  0.15854625  0.59103481  0.25113122    -0.02470
C506        C  0.15881430  0.56419744  0.26658219    -0.02480
C507        C  0.13217523  0.53378760  0.25994748     0.07450
C508        C  0.10519688  0.53017729  0.23806255    -0.02670
Br509      Br  0.06777869  0.48867357  0.23180234    -0.01220
Br510      Br  0.06671727  0.55142699  0.19546570    -0.01290
Br511      Br  0.19606195  0.56891681  0.29542850    -0.01250
Br512      Br  0.19573657  0.63251066  0.25832750    -0.01240
C513        C  0.13161865  0.69833451  0.02270087    -0.02360
C514        C  0.12053849  0.66986890  0.04662182     0.07320
C515        C  0.10763427  0.64097959  0.02334226    -0.02470
C516        C  0.10699520  0.64064309  0.97624874    -0.02480
C517        C  0.11941220  0.66922822  0.95211801     0.07450
C518        C  0.13115139  0.69803794  0.97535104    -0.02670
Br519      Br  0.14876826  0.73724142  0.94243218    -0.01220
Br520      Br  0.14938690  0.73784209  0.05464431    -0.01290
Br521      Br  0.08823223  0.60069350  0.94486277    -0.01250
Br522      Br  0.09001949  0.60155883  0.05605439    -0.01240
C523        C  0.43910032  0.85627034  0.79078793    -0.02360
C524        C  0.46423392  0.86291897  0.76074731     0.07320
C525        C  0.46009406  0.86548676  0.71420566    -0.02470
C526        C  0.43344716  0.86630134  0.69909408    -0.02480
C527        C  0.40968149  0.86221453  0.72979066     0.07450
C528        C  0.41188797  0.85580185  0.77523855    -0.02670
Br529      Br  0.37703478  0.84530775  0.81595487    -0.01220
Br530      Br  0.44051164  0.84542088  0.85275139    -0.01290
Br531      Br  0.43116160  0.87603386  0.63682909    -0.01250
Br532      Br  0.49025933  0.86788190  0.67012633    -0.01240
C533        C  0.23125103  0.80113560  0.75619502    -0.02360
C534        C  0.25553655  0.79866727  0.73454511     0.07320
C535        C  0.25288560  0.76881909  0.73094401    -0.02470
C536        C  0.22587594  0.74162017  0.74790879    -0.02480
C537        C  0.20169091  0.74411841  0.76978281     0.07450
C538        C  0.20455219  0.77397728  0.77411522    -0.02670
Br539      Br  0.17265424  0.77807740  0.80644777    -0.01220
Br540      Br  0.23365254  0.84142366  0.75980207    -0.01290
Br541      Br  0.22153007  0.70071213  0.73885299    -0.01250
Br542      Br  0.28696296  0.76497689  0.70505529    -0.01240
C543        C  0.41030303  0.85272670  0.22768008    -0.02360
C544        C  0.41225701  0.86819426  0.26845607     0.07320
C545        C  0.44074654  0.88250159  0.29315180    -0.02470
C546        C  0.46729224  0.88181277  0.27677155    -0.02480
C547        C  0.46560953  0.86710013  0.23533227     0.07450
C548        C  0.43692124  0.85220989  0.21113252    -0.02670
Br549      Br  0.43354601  0.82995383  0.15604150    -0.01220
Br550      Br  0.37082991  0.83116826  0.19512461    -0.01290
Br551      Br  0.50657460  0.90318778  0.30994316    -0.01250
Br552      Br  0.44455928  0.90545040  0.34775711    -0.01240
C553        C  0.23461842  0.77406267  0.29965892    -0.02360
C554        C  0.25681620  0.79773883  0.27071276     0.07320
C555        C  0.25263044  0.79433801  0.22389787    -0.02470
C556        C  0.22610636  0.76732436  0.20593236    -0.02480
C557        C  0.20354200  0.74361314  0.23488873     0.07450
C558        C  0.20795920  0.74706496  0.28188697    -0.02670
Br559      Br  0.17862464  0.71415889  0.32224903    -0.01220
Br560      Br  0.24063148  0.77896655  0.36375828    -0.01290
Br561      Br  0.22043154  0.76366946  0.14163039    -0.01250
Br562      Br  0.28403507  0.82630296  0.18434705    -0.01240
C563        C  0.36076865  0.90270005  0.47741742    -0.02360
C564        C  0.33187553  0.88533868  0.45407396     0.07320
C565        C  0.30300117  0.86984123  0.47834823    -0.02470
C566        C  0.30321941  0.86966702  0.52575227    -0.02480
C567        C  0.33233313  0.88531246  0.54900828     0.07450
C568        C  0.36100358  0.90277302  0.52459829    -0.02670
Br569      Br  0.40092270  0.92769054  0.55552397    -0.01220
Br570      Br  0.40033799  0.92728607  0.44484947    -0.01290
Br571      Br  0.26365875  0.84571840  0.55828284    -0.01250
Br572      Br  0.26318101  0.84687715  0.44702165    -0.01240
C573        C  0.63413053  0.60460186  0.71771557    -0.02360
C574        C  0.64713687  0.61213064  0.76100292     0.07320
C575        C  0.64731904  0.63674604  0.78505955    -0.02470
C576        C  0.63182676  0.65177940  0.76748058    -0.02480
C577        C  0.61474644  0.64105210  0.72670587     0.07450
C578        C  0.61665917  0.61773178  0.70135290    -0.02670
Br579      Br  0.59281829  0.60044849  0.64669930    -0.01220
Br580      Br  0.64151755  0.57700585  0.68023778    -0.01290
Br581      Br  0.63462223  0.68721896  0.79945501    -0.01250
Br582      Br  0.66771769  0.64890440  0.84273727    -0.01240
C583        C  0.63626892  0.64871677  0.25846764    -0.02360
C584        C  0.60511569  0.63147134  0.27600105     0.07320
C585        C  0.58845428  0.59811481  0.27521140    -0.02470
C586        C  0.60298325  0.58216121  0.25777446    -0.02480
C587        C  0.63350875  0.59927002  0.23799534     0.07450
C588        C  0.65033996  0.63268264  0.23903269    -0.02670
Br589      Br  0.69208506  0.65674629  0.21234841    -0.01220
Br590      Br  0.65996742  0.69428183  0.26201613    -0.01290
Br591      Br  0.58136757  0.53669829  0.26407754    -0.01250
Br592      Br  0.54448976  0.57372656  0.29435214    -0.01240
C593        C  0.66735848  0.57677833  0.02478637    -0.02360
C594        C  0.68218598  0.56265916  0.04722655     0.07320
C595        C  0.69720940  0.54970969  0.02209996    -0.02470
C596        C  0.69573669  0.54907984  0.97494170    -0.02480
C597        C  0.67966204  0.56187331  0.95251988     0.07450
C598        C  0.66604447  0.57629391  0.97749146    -0.02670
Br599      Br  0.64546967  0.59528987  0.94688417    -0.01220
Br600      Br  0.64681159  0.59478228  0.05860066    -0.01290
Br601      Br  0.71327139  0.52794510  0.94152653    -0.01250
Br602      Br  0.72008983  0.53290867  0.05231625    -0.01240
C603        C  0.39043505  0.36060071  0.23357096    -0.02360
C604        C  0.39550773  0.36144528  0.28017075     0.07320
C605        C  0.38448805  0.37659661  0.30874477    -0.02470
C606        C  0.36971123  0.39216157  0.29058980    -0.02480
C607        C  0.36618059  0.39283266  0.24358019     0.07450
C608        C  0.37561672  0.37600096  0.21542817    -0.02670
Br609      Br  0.36789255  0.37332536  0.15176977    -0.01220
Br610      Br  0.40639107  0.34081960  0.19376187    -0.01290
Br611      Br  0.35644393  0.41420962  0.33033214    -0.01250
Br612      Br  0.38989725  0.37611353  0.37282319    -0.01240
C613        C  0.53394368  0.42461994  0.22937231    -0.02360
C614        C  0.53761627  0.40372245  0.25751514     0.07320
C615        C  0.56826945  0.40937204  0.26633927    -0.02470
C616        C  0.59516164  0.43640653  0.24855845    -0.02480
C617        C  0.59156435  0.45789398  0.22167648     0.07450
C618        C  0.56076186  0.45125786  0.21079629    -0.02670
Br619      Br  0.55469953  0.47920567  0.17219521    -0.01220
Br620      Br  0.49233462  0.41866924  0.21941721    -0.01290
Br621      Br  0.63685259  0.44293695  0.25902576    -0.01250
Br622      Br  0.57350943  0.37958634  0.30164032    -0.01240
C623        C  0.37191891  0.35139648  0.75262487    -0.02360
C624        C  0.40169442  0.36912302  0.73090441     0.07320
C625        C  0.41574250  0.40218866  0.72657090    -0.02470
C626        C  0.40090967  0.41750883  0.74515360    -0.02480
C627        C  0.37129477  0.39989759  0.76688885     0.07450
C628        C  0.35656143  0.36676123  0.77011767    -0.02670
Br629      Br  0.31619242  0.34275540  0.80046643    -0.01220
Br630      Br  0.35166801  0.30604474  0.75716034    -0.01290
Br631      Br  0.42141791  0.46298873  0.74053406    -0.01250
Br632      Br  0.45621405  0.42736550  0.69708840    -0.01240
C633        C  0.57620901  0.46467848  0.73544347    -0.02360
C634        C  0.59527015  0.46265839  0.76893143     0.07320
C635        C  0.58787045  0.43262137  0.78478418    -0.02470
C636        C  0.56099160  0.40505788  0.76814480    -0.02480
C637        C  0.54274527  0.40739202  0.73368838     0.07450
C638        C  0.55161657  0.43721031  0.71573473    -0.02670
Br639      Br  0.53025775  0.44093742  0.66402629    -0.01220
Br640      Br  0.58039410  0.50465236  0.72050429    -0.01290
Br641      Br  0.55029150  0.36395819  0.79020691    -0.01250
Br642      Br  0.61498118  0.42904206  0.82785729    -0.01240
C643        C  0.42012193  0.31135666  0.48048979    -0.02360
C644        C  0.44837025  0.32019480  0.45637943     0.07320
C645        C  0.47588792  0.32650498  0.47989527    -0.02470
C646        C  0.47583337  0.32622152  0.52705857    -0.02480
C647        C  0.44826119  0.31947882  0.55124041     0.07450
C648        C  0.42007366  0.31094840  0.52789387    -0.02670
Br649      Br  0.38194337  0.30086627  0.56060109    -0.01220
Br650      Br  0.38198938  0.30196918  0.44911514    -0.01290
Br651      Br  0.51357468  0.33420969  0.55852409    -0.01250
Br652      Br  0.51367855  0.33448608  0.44775459    -0.01240
C653        C  0.42023247  0.02156717  0.73624899    -0.02360
C654        C  0.40280304  0.03061289  0.76379656     0.07320
C655        C  0.37019242  0.00940198  0.77119674    -0.02470
C656        C  0.35524631  0.97883931  0.75227088    -0.02480
C657        C  0.37311682  0.96901968  0.72680248     0.07450
C658        C  0.40579242  0.99077625  0.71874553    -0.02670
Br659      Br  0.43228906  0.97861069  0.68664918    -0.01220
Br660      Br  0.46394566  0.05190795  0.72062116    -0.01290
Br661      Br  0.31006194  0.95110915  0.76053958    -0.01250
Br662      Br  0.34633546  0.02162026  0.80920051    -0.01240
C663        C  0.56150683  0.15878666  0.73853121    -0.02360
C664        C  0.54106453  0.13556124  0.76957181     0.07320
C665        C  0.54787900  0.11267265  0.78500484    -0.02470
C666        C  0.57473092  0.11263916  0.76878943    -0.02480
C667        C  0.59504587  0.13566341  0.73741618     0.07450
C668        C  0.58858273  0.15888026  0.72249627    -0.02670
Br669      Br  0.61737616  0.19131970  0.68129060    -0.01220
Br670      Br  0.55298064  0.19102470  0.71938530    -0.01290
Br671      Br  0.58223006  0.07943273  0.78706277    -0.01250
Br672      Br  0.51932204  0.07986479  0.82620279    -0.01240
C673        C  0.44835803  0.21776518  0.79614152    -0.02360
C674        C  0.45301124  0.19821385  0.76635591     0.07320
C675        C  0.45713829  0.20521201  0.72000975    -0.02470
C676        C  0.45682311  0.23178650  0.70359564    -0.02480
C677        C  0.45222930  0.25131037  0.73340404     0.07450
C678        C  0.44789201  0.24423463  0.77964051    -0.02670
Br679      Br  0.44290090  0.27174658  0.82069565    -0.01220
Br680      Br  0.44172207  0.20787393  0.85946144    -0.01290
Br681      Br  0.46201805  0.24113761  0.64007949    -0.01250
Br682      Br  0.46500530  0.17948435  0.67920230    -0.01240
C683        C  0.37636950  0.99210825  0.29230134    -0.02360
C684        C  0.37066965  0.96649465  0.26462115     0.07320
C685        C  0.37823929  0.97163226  0.21841065    -0.02470
C686        C  0.39188498  0.00226540  0.20018337    -0.02480
C687        C  0.39868597  0.02812768  0.22815737     0.07450
C688        C  0.39053208  0.02286330  0.27425602    -0.02670
Br689      Br  0.40095189  0.05788426  0.31396618    -0.01220
Br690      Br  0.36444608  0.98508685  0.35506391    -0.01290
Br691      Br  0.40087986  0.00855177  0.13649758    -0.01250
Br692      Br  0.37249445  0.93727879  0.18039160    -0.01240
C693        C  0.55741490  0.12600980  0.20302359    -0.02360
C694        C  0.53986423  0.13396209  0.23235960     0.07320
C695        C  0.54975587  0.14234559  0.27717064    -0.02470
C696        C  0.57643464  0.14187644  0.29298740    -0.02480
C697        C  0.59311083  0.13242704  0.26429730     0.07450
C698        C  0.58389893  0.12520813  0.21890429    -0.02670
Br699      Br  0.60590015  0.11204608  0.17842833    -0.01220
Br700      Br  0.54394262  0.11354937  0.14166871    -0.01290
Br701      Br  0.59077069  0.15581252  0.35358171    -0.01250
Br702      Br  0.52736330  0.15542032  0.31688973    -0.01240
C703        C  0.42609647  0.22580496  0.25382567    -0.02360
C704        C  0.45446697  0.25170401  0.27072653     0.07320
C705        C  0.48253833  0.25036120  0.27054055    -0.02470
C706        C  0.48213919  0.22338567  0.25408290    -0.02480
C707        C  0.45392827  0.19778765  0.23668864     0.07450
C708        C  0.42596028  0.19914492  0.23643400    -0.02670
Br709      Br  0.38770588  0.16525892  0.20986886    -0.01220
Br710      Br  0.38675910  0.22578504  0.25586247    -0.01290
Br711      Br  0.52026195  0.22121317  0.25712005    -0.01250
Br712      Br  0.52236098  0.28600523  0.29034340    -0.01240
C713        C  0.41584039  0.10215293  0.02388076    -0.02360
C714        C  0.44422962  0.12197992  0.04719948     0.07320
C715        C  0.47185842  0.14343664  0.02311759    -0.02470
C716        C  0.47168795  0.14370808  0.97601150    -0.02480
C717        C  0.44395417  0.12229536  0.95244630     0.07450
C718        C  0.41570414  0.10226663  0.97645687    -0.02670
Br719      Br  0.37743546  0.07340865  0.94471187    -0.01220
Br720      Br  0.37777131  0.07321192  0.05662409    -0.01290
Br721      Br  0.50958081  0.17437009  0.94395999    -0.01250
Br722      Br  0.51008907  0.17327001  0.05459756    -0.01240
C723        C  0.90280097  0.43919485  0.74656658    -0.02360
C724        C  0.87574661  0.41421620  0.76766108     0.07320
C725        C  0.84823075  0.41606470  0.77352204    -0.02470
C726        C  0.84752548  0.44245406  0.75707607    -0.02480
C727        C  0.87418230  0.46674517  0.73440736     0.07450
C728        C  0.90189597  0.46522697  0.72950795    -0.02670
Br729      Br  0.93930294  0.49964832  0.70133567    -0.01220
Br730      Br  0.94201025  0.43907012  0.74407712    -0.01290
Br731      Br  0.80967411  0.44474061  0.76382529    -0.01250
Br732      Br  0.81109893  0.38196636  0.80241417    -0.01240
C733        C  0.99660594  0.61648641  0.70154732    -0.02360
C734        C  0.96993356  0.60159396  0.73045586     0.07320
C735        C  0.97448246  0.60177034  0.77730414    -0.02470
C736        C  0.00538055  0.61598270  0.79486774    -0.02480
C737        C  0.03196146  0.62972301  0.76579598     0.07450
C738        C  0.02748232  0.63039055  0.71910821    -0.02670
Br739      Br  0.06340459  0.64836946  0.67843767    -0.01220
Br740      Br  0.99108529  0.61832391  0.63764478    -0.01290
Br741      Br  0.01120218  0.61714258  0.85912968    -0.01250
Br742      Br  0.93856835  0.58040267  0.81771862    -0.01240
C743        C  0.79977578  0.55638935  0.77278682    -0.02360
C744        C  0.79971714  0.54705474  0.72794290     0.07320
C745        C  0.77274678  0.53747260  0.70099561    -0.02470
C746        C  0.74633673  0.53801123  0.71848037    -0.02480
C747        C  0.74659977  0.54763229  0.76310860     0.07450
C748        C  0.77329383  0.55673544  0.79025680    -0.02670
Br749      Br  0.77408621  0.57083577  0.85096345    -0.01220
Br750      Br  0.83531884  0.56688245  0.81137798    -0.01290
Br751      Br  0.70929404  0.52459782  0.68180316    -0.01250
Br752      Br  0.77204299  0.52424679  0.63981630    -0.01240
C753        C  0.90283155  0.44181251  0.22974615    -0.02360
C754        C  0.87470052  0.41200027  0.23092361     0.07320
C755        C  0.84638402  0.40911770  0.24736464    -0.02470
C756        C  0.84632865  0.43597200  0.26344434    -0.02480
C757        C  0.87453614  0.46582230  0.26245897     0.07450
C758        C  0.90271787  0.46871253  0.24510284    -0.02670
Br759      Br  0.94171383  0.50926317  0.24392556    -0.01220
Br760      Br  0.94198220  0.44557810  0.20894335    -0.01290
Br761      Br  0.80721975  0.43214739  0.28426520    -0.01250
Br762      Br  0.80735266  0.36875892  0.24527888    -0.01240
C763        C  0.98399768  0.62684152  0.23825777    -0.02360
C764        C  0.97402917  0.60388437  0.27276682     0.07320
C765        C  0.99600959  0.59634494  0.29063117    -0.02470
C766        C  0.02689090  0.61047584  0.27273978    -0.02480
C767        C  0.03614429  0.63206000  0.23682633     0.07450
C768        C  0.01494892  0.64076154  0.22023554    -0.02670
Br769      Br  0.02765069  0.67020409  0.17082820    -0.01220
Br770      Br  0.95577045  0.64005004  0.21604167    -0.01290
Br771      Br  0.05689533  0.60045454  0.29801787    -0.01250
Br772      Br  0.98408426  0.56510128  0.33760541    -0.01240
C773        C  0.77454724  0.53742598  0.29213545    -0.02360
C774        C  0.80299775  0.55141819  0.26682832     0.07320
C775        C  0.80457989  0.56577319  0.22513527    -0.02470
C776        C  0.77775106  0.56570233  0.20860546    -0.02480
C777        C  0.74924240  0.55138202  0.23368444     0.07450
C778        C  0.74782781  0.53756417  0.27572309    -0.02670
Br779      Br  0.70879054  0.51733054  0.31011230    -0.01220
Br780      Br  0.77211153  0.51857609  0.34996926    -0.01290
Br781      Br  0.78044104  0.58618716  0.15214798    -0.01250
Br782      Br  0.84283393  0.58390582  0.18909917    -0.01240
C783        C  0.86124363  0.56437905  0.47333229    -0.02360
C784        C  0.88187069  0.55714153  0.45007974     0.07320
C785        C  0.90359522  0.55231276  0.47441438    -0.02470
C786        C  0.90330092  0.55270986  0.52156711    -0.02480
C787        C  0.88165348  0.55835368  0.54469447     0.07450
C788        C  0.86131437  0.56515747  0.52066966    -0.02670
Br789      Br  0.83256384  0.57398117  0.55276935    -0.01220
Br790      Br  0.83125625  0.57094161  0.44090166    -0.01290
Br791      Br  0.93290807  0.54588477  0.55483960    -0.01250
Br792      Br  0.93470782  0.54624634  0.44347385    -0.01240
loop_ 
_geom_bond_atom_site_label_1 
_geom_bond_atom_site_label_2 
_geom_bond_distance 
_geom_bond_site_symmetry_2 
_ccdc_geom_bond_type 
In1           O3   2.253       .  S
In1           O4   2.230       .  S
In1          O12   2.242       .  S
In1           O6   2.255       .  S
In1           O8   2.253       .  S
In1           O9   2.252       .  S
In1          O10   2.243       .  S
In1          O13   2.238       .  S
C2            O8   1.260       .  A
C2           O10   1.258       .  A
C2          C764   1.486       .  S
O3           C11   1.263       .  A
O4           C11   1.261       .  A
C5           O12   1.258       .  A
C5            O6   1.260       .  A
C5          C774   1.479       .  S
C7            O9   1.261       .  A
C7           O13   1.258       .  A
C7          C757   1.475       .  S
C11         C784   1.479       .  S
In14         O16   2.249       .  S
In14         O17   2.229       .  S
In14         O25   2.246       .  S
In14         O19   2.242       .  S
In14         O21   2.257       .  S
In14         O22   2.227       .  S
In14         O23   2.240       .  S
In14         O26   2.262       .  S
C15          O21   1.261       .  A
C15          O23   1.257       .  A
C15         C734   1.482       .  S
O16          C24   1.260       .  A
O17          C24   1.259       .  A
C18          O25   1.260       .  A
C18          O19   1.261       .  A
C18         C744   1.477       .  S
C20          O22   1.258       .  A
C20          O26   1.261       .  A
C20         C787   1.470       .  S
C24         C727   1.469       .  S
In27         O29   2.270       .  S
In27         O30   2.223       .  S
In27         O38   2.239       .  S
In27         O32   2.253       .  S
In27         O34   2.255       .  S
In27         O35   2.236       .  S
In27         O36   2.233       .  S
In27         O39   2.244       .  S
C28          O34   1.262       .  A
C28          O36   1.259       .  A
C28         C687   1.481       .  S
O29          C37   1.261       .  A
O30          C37   1.256       .  A
C31          O38   1.258       .  A
C31          O32   1.261       .  A
C31         C707   1.479       .  S
C33          O35   1.259       .  A
C33          O39   1.260       .  A
C33         C694   1.478       .  S
C37         C714   1.477       .  S
In40         O42   2.252       .  S
In40         O43   2.229       .  S
In40         O51   2.243       .  S
In40         O45   2.243       .  S
In40         O47   2.270       .  S
In40         O48   2.215       .  S
In40         O49   2.231       .  S
In40         O52   2.276       .  S
C41          O47   1.260       .  A
C41          O49   1.255       .  A
C41         C654   1.478       .  S
O42          C50   1.261       .  A
O43          C50   1.258       .  A
C44          O51   1.260       .  A
C44          O45   1.260       .  A
C44         C674   1.474       .  S
C46          O48   1.255       .  A
C46          O52   1.262       .  A
C46         C717   1.478       .  S
C50         C664   1.470       .  S
In53         O55   2.257       .  S
In53         O56   2.243       .  S
In53         O64   2.237       .  S
In53         O58   2.249       .  S
In53         O60   2.265       .  S
In53         O61   2.218       .  S
In53         O62   2.248       .  S
In53         O65   2.264       .  S
C54          O60   1.259       .  A
C54          O62   1.258       .  A
C54         C624   1.483       .  S
O55          C63   1.260       .  A
O56          C63   1.257       .  A
C57          O64   1.258       .  A
C57          O58   1.261       .  A
C57         C677   1.471       .  S
C59          O61   1.259       .  A
C59          O65   1.264       .  A
C59         C647   1.478       .  S
C63         C637   1.475       .  S
In66         O68   2.258       .  S
In66         O69   2.223       .  S
In66         O77   2.245       .  S
In66         O71   2.246       .  S
In66         O73   2.250       .  S
In66         O74   2.251       .  S
In66         O75   2.240       .  S
In66         O78   2.244       .  S
C67          O73   1.260       .  A
C67          O75   1.258       .  A
C67         C604   1.474       .  S
O68          C76   1.263       .  A
O69          C76   1.260       .  A
C70          O77   1.259       .  A
C70          O71   1.259       .  A
C70         C704   1.485       .  S
C72          O74   1.259       .  A
C72          O78   1.258       .  A
C72         C614   1.478       .  S
C76         C644   1.481       .  S
In79         O81   2.263       .  S
In79         O82   2.222       .  S
In79         O90   2.251       .  S
In79         O84   2.250       .  S
In79         O86   2.262       .  S
In79         O87   2.246       .  S
In79         O88   2.231       .  S
In79         O91   2.256       .  S
C80          O86   1.261       .  A
C80          O88   1.259       .  A
C80         C587   1.483       .  S
O81          C89   1.263       .  A
O82          C89   1.259       .  A
C83          O90   1.258       .  A
C83          O84   1.259       .  A
C83         C777   1.477       .  S
C85          O87   1.256       .  A
C85          O91   1.259       .  A
C85         C617   1.481       .  S
C89         C594   1.477       .  S
In92         O94   2.234       .  S
In92         O95   2.266       .  S
In92        O103   2.243       .  S
In92         O97   2.243       .  S
In92         O99   2.280       .  S
In92        O100   2.254       .  S
In92        O101   2.226       .  S
In92        O104   2.249       .  S
C93          O99   1.260       .  A
C93         O101   1.255       .  A
C93         C574   1.474       .  S
O94         C102   1.259       .  A
O95         C102   1.262       .  A
C96         O103   1.261       .  A
C96          O97   1.261       .  A
C96         C747   1.473       .  S
C98         O100   1.260       .  A
C98         O104   1.258       .  A
C98         C597   1.477       .  S
C102        C634   1.482       .  S
In105       O107   2.272       .  S
In105       O108   2.223       .  S
In105       O116   2.251       .  S
In105       O110   2.250       .  S
In105       O112   2.245       .  S
In105       O113   2.237       .  S
In105       O114   2.248       .  S
In105       O117   2.249       .  S
C106        O112   1.260       .  A
C106        O114   1.260       .  A
C106        C684   1.479       .  S
O107        C115   1.262       .  A
O108        C115   1.256       .  A
C109        O116   1.257       .  A
C109        O110   1.258       .  A
C109        C554   1.471       .  S
C111        O113   1.258       .  A
C111        O117   1.260       .  A
C111        C544   1.476       .  S
C115        C564   1.480       .  S
In118       O120   2.248       .  S
In118       O121   2.257       .  S
In118       O129   2.244       .  S
In118       O123   2.257       .  S
In118       O125   2.253       .  S
In118       O126   2.216       .  S
In118       O127   2.234       .  S
In118       O130   2.256       .  S
C119        O125   1.262       .  A
C119        O127   1.259       .  A
C119        C657   1.488       .  S
O120        C128   1.254       .  A
O121        C128   1.256       .  A
C122        O129   1.256       .  A
C122        O123   1.257       .  A
C122        C534   1.480       .  S
C124        O126   1.261       .  A
C124        O130   1.266       .  A
C124        C567   1.482       .  S
C128        C527   1.474       .  S
In131       O133   2.264       .  S
In131       O134   2.226       .  S
In131       O142   2.248       .  S
In131       O136   2.245       .  S
In131       O138   2.263       .  S
In131       O139   2.231       .  S
In131       O140   2.228       .  S
In131       O143   2.254       .  S
C132        O138   1.261       .  A
C132        O140   1.257       .  A
C132        C767   1.474       .  S
O133        C141   1.260       .  A
O134        C141   1.256       .  A
C135        O142   1.259       .  A
C135        O136   1.259       .  A
C135        C557   1.479       .  S
C137        O139   1.259       .  A
C137        O143   1.262       .  A
C137        C504   1.475       .  S
C141        C514   1.472       .  S
In144       O146   2.249       .  S
In144       O147   2.235       .  S
In144       O155   2.240       .  S
In144       O149   2.248       .  S
In144       O151   2.252       .  S
In144       O152   2.223       .  S
In144       O153   2.244       .  S
In144       O156   2.265       .  S
C145        O151   1.260       .  A
C145        O153   1.259       .  A
C145        C737   1.481       .  S
O146        C154   1.261       .  A
O147        C154   1.258       .  A
C148        O155   1.259       .  A
C148        O149   1.260       .  A
C148        C537   1.478       .  S
C150        O152   1.256       .  A
C150        O156   1.261       .  A
C150        C517   1.473       .  S
C154        C494   1.474       .  S
In157       O159   2.257       .  S
In157       O160   2.234       .  S
In157       O168   2.227       .  S
In157       O162   2.259       .  S
In157       O164   2.264       .  S
In157       O165   2.236       .  S
In157       O166   2.234       .  S
In157       O169   2.241       .  S
C158        O164   1.261       .  A
C158        O166   1.257       .  A
C158        C464   1.477       .  S
O159        C167   1.260       .  A
O160        C167   1.258       .  A
C161        O168   1.258       .  A
C161        O162   1.263       .  A
C161        C474   1.481       .  S
C163        O165   1.260       .  A
C163        O169   1.261       .  A
C163        C697   1.482       .  S
C167        C484   1.477       .  S
In170       O172   2.240       .  S
In170       O173   2.243       .  S
In170       O181   2.241       .  S
In170       O175   2.250       .  S
In170       O177   2.261       .  S
In170       O178   2.224       .  S
In170       O179   2.226       .  S
In170       O182   2.254       .  S
C171        O177   1.262       .  A
C171        O179   1.258       .  A
C171        C447   1.479       .  S
O172        C180   1.259       .  A
O173        C180   1.259       .  A
C174        O181   1.257       .  A
C174        O175   1.258       .  A
C174        C457   1.477       .  S
C176        O178   1.260       .  A
C176        O182   1.263       .  A
C176        C487   1.477       .  S
C180        C667   1.469       .  S
In183       O185   2.259       .  S
In183       O186   2.236       .  S
In183       O194   2.242       .  S
In183       O188   2.253       .  S
In183       O190   2.255       .  S
In183       O191   2.235       .  S
In183       O192   2.240       .  S
In183       O195   2.253       .  S
C184        O190   1.260       .  A
C184        O192   1.257       .  A
C184        C427   1.481       .  S
O185        C193   1.259       .  A
O186        C193   1.258       .  A
C187        O194   1.260       .  A
C187        O188   1.260       .  A
C187        C477   1.479       .  S
C189        O191   1.259       .  A
C189        O195   1.261       .  A
C189        C754   1.472       .  S
C193        C437   1.472       .  S
In196       O198   2.244       .  S
In196       O199   2.246       .  S
In196       O207   2.244       .  S
In196       O201   2.247       .  S
In196       O203   2.243       .  S
In196       O204   2.222       .  S
In196       O205   2.249       .  S
In196       O208   2.265       .  S
C197        O203   1.259       .  A
C197        O205   1.261       .  A
C197        C414   1.479       .  S
O198        C206   1.259       .  A
O199        C206   1.258       .  A
C200        O207   1.257       .  A
C200        O201   1.257       .  A
C200        C454   1.481       .  S
C202        O204   1.257       .  A
C202        O208   1.262       .  A
C202        C434   1.479       .  S
C206        C724   1.472       .  S
In209       O211   2.261       .  S
In209       O212   2.214       .  S
In209       O220   2.233       .  S
In209       O214   2.255       .  S
In209       O216   2.263       .  S
In209       O217   2.240       .  S
In209       O218   2.234       .  S
In209       O221   2.253       .  S
C210        O216   1.261       .  A
C210        O218   1.257       .  A
C210        C467   1.480       .  S
O211        C219   1.265       .  A
O212        C219   1.259       .  A
C213        O220   1.259       .  A
C213        O214   1.262       .  A
C213        C397   1.488       .  S
C215        O217   1.256       .  A
C215        O221   1.258       .  A
C215        C547   1.476       .  S
C219        C404   1.476       .  S
In222       O224   2.243       .  S
In222       O225   2.241       .  S
In222       O233   2.220       .  S
In222       O227   2.260       .  S
In222       O229   2.260       .  S
In222       O230   2.233       .  S
In222       O231   2.247       .  S
In222       O234   2.256       .  S
C223        O229   1.260       .  A
C223        O231   1.257       .  A
C223        C444   1.478       .  S
O224        C232   1.259       .  A
O225        C232   1.262       .  A
C226        O233   1.257       .  A
C226        O227   1.263       .  A
C226        C384   1.484       .  S
C228        O230   1.260       .  A
C228        O234   1.261       .  A
C228        C407   1.478       .  S
C232        C524   1.487       .  S
In235       O237   2.267       .  S
In235       O238   2.221       .  S
In235       O246   2.237       .  S
In235       O240   2.260       .  S
In235       O242   2.251       .  S
In235       O243   2.252       .  S
In235       O244   2.235       .  S
In235       O247   2.253       .  S
C236        O242   1.261       .  A
C236        O244   1.260       .  A
C236        C584   1.478       .  S
O237        C245   1.264       .  A
O238        C245   1.258       .  A
C239        O246   1.257       .  A
C239        O240   1.259       .  A
C239        C394   1.488       .  S
C241        O243   1.257       .  A
C241        O247   1.257       .  A
C241        C364   1.481       .  S
C245        C377   1.479       .  S
In248       O250   2.248       .  S
In248       O251   2.258       .  S
In248       O259   2.245       .  S
In248       O253   2.258       .  S
In248       O255   2.248       .  S
In248       O256   2.236       .  S
In248       O257   2.246       .  S
In248       O260   2.255       .  S
C249        O255   1.260       .  A
C249        O257   1.259       .  A
C249        C577   1.488       .  S
O250        C258   1.259       .  A
O251        C258   1.261       .  A
C252        O259   1.257       .  A
C252        O253   1.258       .  A
C252        C387   1.478       .  S
C254        O256   1.261       .  A
C254        O260   1.262       .  A
C254        C374   1.474       .  S
C258        C354   1.484       .  S
In261       O263   2.261       .  S
In261       O264   2.225       .  S
In261       O272   2.236       .  S
In261       O266   2.261       .  S
In261       O268   2.248       .  S
In261       O269   2.238       .  S
In261       O270   2.234       .  S
In261       O273   2.244       .  S
C262        O268   1.263       .  A
C262        O270   1.260       .  A
C262        C424   1.481       .  S
O263        C271   1.260       .  A
O264        C271   1.257       .  A
C265        O272   1.257       .  A
C265        O266   1.260       .  A
C265        C334   1.480       .  S
C267        O269   1.259       .  A
C267        O273   1.261       .  A
C267        C507   1.471       .  S
C271        C347   1.475       .  S
In274       O276   2.256       .  S
In274       O277   2.232       .  S
In274       O285   2.250       .  S
In274       O279   2.250       .  S
In274       O281   2.253       .  S
In274       O282   2.221       .  S
In274       O283   2.231       .  S
In274       O286   2.264       .  S
C275        O281   1.263       .  A
C275        O283   1.259       .  A
C275        C417   1.477       .  S
O276        C284   1.261       .  A
O277        C284   1.257       .  A
C278        O285   1.257       .  A
C278        O279   1.258       .  A
C278        C324   1.477       .  S
C280        O282   1.257       .  A
C280        O286   1.262       .  A
C280        C344   1.476       .  S
C284        C497   1.480       .  S
In287       O289   2.261       .  S
In287       O290   2.247       .  S
In287       O298   2.233       .  S
In287       O292   2.259       .  S
In287       O294   2.265       .  S
In287       O295   2.249       .  S
In287       O296   2.239       .  S
In287       O299   2.240       .  S
C288        O294   1.260       .  A
C288        O296   1.258       .  A
C288        C607   1.484       .  S
O289        C297   1.259       .  A
O290        C297   1.259       .  A
C291        O298   1.258       .  A
C291        O292   1.262       .  A
C291        C337   1.485       .  S
C293        O295   1.262       .  A
C293        O299   1.260       .  A
C293        C367   1.487       .  S
C297        C317   1.483       .  S
In300       O302   2.265       .  S
In300       O303   2.236       .  S
In300       O311   2.240       .  S
In300       O305   2.250       .  S
In300       O307   2.265       .  S
In300       O308   2.242       .  S
In300       O309   2.233       .  S
In300       O312   2.258       .  S
C301        O307   1.261       .  A
C301        O309   1.258       .  A
C301        C627   1.475       .  S
O302        C310   1.260       .  A
O303        C310   1.258       .  A
C304        O311   1.261       .  A
C304        O305   1.262       .  A
C304        C327   1.480       .  S
C306        O308   1.257       .  A
C306        O312   1.260       .  A
C306        C314   1.480       .  S
C310        C357   1.488       .  S
C313        C314   1.411       .  A
C313        C318   1.409   1_556  A
C313       Br320   1.934       .  S
C314        C315   1.411       .  A
C315        C316   1.407   1_556  A
C315       Br322   1.927       .  S
C316        C317   1.410       .  A
C316       Br321   1.929       .  S
C317        C318   1.412       .  A
C318       Br319   1.925       .  S
C323        C324   1.411       .  A
C323        C328   1.409       .  A
C323       Br330   1.932       .  S
C324        C325   1.410       .  A
C325        C326   1.406       .  A
C325       Br332   1.933       .  S
C326        C327   1.410       .  A
C326       Br331   1.926       .  S
C327        C328   1.412       .  A
C328       Br329   1.932       .  S
C333        C334   1.411       .  A
C333        C338   1.411       .  A
C333       Br340   1.932       .  S
C334        C335   1.411       .  A
C335        C336   1.407       .  A
C335       Br342   1.936       .  S
C336        C337   1.415       .  A
C336       Br341   1.933       .  S
C337        C338   1.415       .  A
C338       Br339   1.932       .  S
C343        C344   1.411       .  A
C343        C348   1.403       .  A
C343       Br350   1.933       .  S
C344        C345   1.411       .  A
C345        C346   1.411       .  A
C345       Br352   1.929       .  S
C346        C347   1.411       .  A
C346       Br351   1.929       .  S
C347        C348   1.410       .  A
C348       Br349   1.936       .  S
C353        C354   1.411       .  A
C353        C358   1.407       .  A
C353       Br360   1.931       .  S
C354        C355   1.412       .  A
C355        C356   1.412       .  A
C355       Br362   1.933       .  S
C356        C357   1.416       .  A
C356       Br361   1.933       .  S
C357        C358   1.414       .  A
C358       Br359   1.936       .  S
C363        C364   1.411       .  A
C363        C368   1.410       .  A
C363       Br370   1.933       .  S
C364        C365   1.412       .  A
C365        C366   1.408       .  A
C365       Br372   1.935       .  S
C366        C367   1.415       .  A
C366       Br371   1.933       .  S
C367        C368   1.415       .  A
C368       Br369   1.933       .  S
C373        C374   1.410       .  A
C373        C378   1.411       .  A
C373       Br380   1.930       .  S
C374        C375   1.407       .  A
C375        C376   1.405       .  A
C375       Br382   1.932       .  S
C376        C377   1.412       .  A
C376       Br381   1.933       .  S
C377        C378   1.412       .  A
C378       Br379   1.929       .  S
C383        C384   1.415       .  A
C383        C388   1.406       .  A
C383       Br390   1.936       .  S
C384        C385   1.415       .  A
C385        C386   1.410       .  A
C385       Br392   1.932       .  S
C386        C387   1.410       .  A
C386       Br391   1.932       .  S
C387        C388   1.409       .  A
C388       Br389   1.931       .  S
C393        C394   1.415       .  A
C393        C398   1.412       .  A
C393       Br400   1.933       .  S
C394        C395   1.415       .  A
C395        C396   1.407       .  A
C395       Br402   1.938       .  S
C396        C397   1.416       .  A
C396       Br401   1.937       .  S
C397        C398   1.414       .  A
C398       Br399   1.933       .  S
C403        C404   1.409       .  A
C403        C408   1.412   1_554  A
C403       Br410   1.929       .  S
C404        C405   1.411       .  A
C405        C406   1.404   1_554  A
C405       Br412   1.935       .  S
C406        C407   1.411       .  A
C406       Br411   1.934       .  S
C407        C408   1.413       .  A
C408       Br409   1.930       .  S
C413        C414   1.410       .  A
C413        C418   1.408   1_655  A
C413       Br420   1.932       .  S
C414        C415   1.413       .  A
C415        C416   1.407   1_655  A
C415       Br422   1.933       .  S
C416        C417   1.410       .  A
C416       Br421   1.934       .  S
C417        C418   1.412       .  A
C418       Br419   1.931       .  S
C423        C424   1.412       .  A
C423        C428   1.408   1_455  A
C423       Br430   1.933       .  S
C424        C425   1.413       .  A
C425        C426   1.408   1_455  A
C425       Br432   1.934       .  S
C426        C427   1.413       .  A
C426       Br431   1.934       .  S
C427        C428   1.413       .  A
C428       Br429   1.933       .  S
C433        C434   1.413       .  A
C433        C438   1.404   1_556  A
C433       Br440   1.934       .  S
C434        C435   1.414       .  A
C435        C436   1.411   1_556  A
C435       Br442   1.930       .  S
C436        C437   1.407       .  A
C436       Br441   1.927       .  S
C437        C438   1.407       .  A
C438       Br439   1.934       .  S
C443        C444   1.410       .  A
C443        C448   1.411   1_565  A
C443       Br450   1.930       .  S
C444        C445   1.409       .  A
C445        C446   1.405   1_565  A
C445       Br452   1.925       .  S
C446        C447   1.411       .  A
C446       Br451   1.935       .  S
C447        C448   1.413       .  A
C448       Br449   1.931       .  S
C453        C454   1.414       .  A
C453        C458   1.408       .  A
C453       Br460   1.933       .  S
C454        C455   1.414       .  A
C455        C456   1.406       .  A
C455       Br462   1.935       .  S
C456        C457   1.412       .  A
C456       Br461   1.935       .  S
C457        C458   1.411       .  A
C458       Br459   1.933       .  S
C463        C464   1.410       .  A
C463        C468   1.405   1_545  A
C463       Br470   1.934       .  S
C464        C465   1.410       .  A
C465        C466   1.411   1_545  A
C465       Br472   1.929       .  S
C466        C467   1.412       .  A
C466       Br471   1.929       .  S
C467        C468   1.414       .  A
C468       Br469   1.936       .  S
C473        C474   1.413       .  A
C473        C478   1.406       .  A
C473       Br480   1.934       .  S
C474        C475   1.413       .  A
C475        C476   1.410       .  A
C475       Br482   1.932       .  S
C476        C477   1.410       .  A
C476       Br481   1.930       .  S
C477        C478   1.410       .  A
C478       Br479   1.932       .  S
C483        C484   1.411       .  A
C483        C488   1.410       .  A
C483       Br490   1.930       .  S
C484        C485   1.411       .  A
C485        C486   1.405       .  A
C485       Br492   1.934       .  S
C486        C487   1.411       .  A
C486       Br491   1.935       .  S
C487        C488   1.412       .  A
C488       Br489   1.930       .  S
C493        C494   1.411       .  A
C493        C498   1.409       .  A
C493       Br500   1.932       .  S
C494        C495   1.408       .  A
C495        C496   1.405       .  A
C495       Br502   1.933       .  S
C496        C497   1.415       .  A
C496       Br501   1.934       .  S
C497        C498   1.412       .  A
C498       Br499   1.931       .  S
C503        C504   1.413       .  A
C503        C508   1.405       .  A
C503       Br510   1.933       .  S
C504        C505   1.411       .  A
C505        C506   1.408       .  A
C505       Br512   1.931       .  S
C506        C507   1.409       .  A
C506       Br511   1.930       .  S
C507        C508   1.408       .  A
C508       Br509   1.933       .  S
C513        C514   1.409       .  A
C513        C518   1.410   1_554  A
C513       Br520   1.928       .  S
C514        C515   1.409       .  A
C515        C516   1.403   1_554  A
C515       Br522   1.934       .  S
C516        C517   1.410       .  A
C516       Br521   1.934       .  S
C517        C518   1.410       .  A
C518       Br519   1.929       .  S
C523        C524   1.415       .  A
C523        C528   1.407       .  A
C523       Br530   1.934       .  S
C524        C525   1.417       .  A
C525        C526   1.408       .  A
C525       Br532   1.931       .  S
C526        C527   1.409       .  A
C526       Br531   1.934       .  S
C527        C528   1.408       .  A
C528       Br529   1.932       .  S
C533        C534   1.412       .  A
C533        C538   1.409       .  A
C533       Br540   1.932       .  S
C534        C535   1.413       .  A
C535        C536   1.406       .  A
C535       Br542   1.935       .  S
C536        C537   1.411       .  A
C536       Br541   1.935       .  S
C537        C538   1.411       .  A
C538       Br539   1.932       .  S
C543        C544   1.410       .  A
C543        C548   1.407       .  A
C543       Br550   1.932       .  S
C544        C545   1.412       .  A
C545        C546   1.406       .  A
C545       Br552   1.934       .  S
C546        C547   1.412       .  A
C546       Br551   1.934       .  S
C547        C548   1.412       .  A
C548       Br549   1.932       .  S
C553        C554   1.406       .  A
C553        C558   1.408       .  A
C553       Br560   1.929       .  S
C554        C555   1.408       .  A
C555        C556   1.407       .  A
C555       Br562   1.932       .  S
C556        C557   1.413       .  A
C556       Br561   1.932       .  S
C557        C558   1.414       .  A
C558       Br559   1.932       .  S
C563        C564   1.412       .  A
C563        C568   1.405       .  A
C563       Br570   1.935       .  S
C564        C565   1.412       .  A
C565        C566   1.412       .  A
C565       Br572   1.929       .  S
C566        C567   1.413       .  A
C566       Br571   1.931       .  S
C567        C568   1.413       .  A
C568       Br569   1.936       .  S
C573        C574   1.405       .  A
C573        C578   1.405       .  A
C573       Br580   1.931       .  S
C574        C575   1.405       .  A
C575        C576   1.411       .  A
C575       Br582   1.928       .  S
C576        C577   1.419       .  A
C576       Br581   1.931       .  S
C577        C578   1.417       .  A
C578       Br579   1.934       .  S
C583        C584   1.411       .  A
C583        C588   1.412       .  A
C583       Br590   1.930       .  S
C584        C585   1.411       .  A
C585        C586   1.404       .  A
C585       Br592   1.937       .  S
C586        C587   1.413       .  A
C586       Br591   1.934       .  S
C587        C588   1.414       .  A
C588       Br589   1.930       .  S
C593        C594   1.412       .  A
C593        C598   1.410   1_554  A
C593       Br600   1.931       .  S
C594        C595   1.410       .  A
C595        C596   1.406   1_554  A
C595       Br602   1.933       .  S
C596        C597   1.410       .  A
C596       Br601   1.931       .  S
C597        C598   1.410       .  A
C598       Br599   1.929       .  S
C603        C604   1.408       .  A
C603        C608   1.405       .  A
C603       Br610   1.935       .  S
C604        C605   1.408       .  A
C605        C606   1.410       .  A
C605       Br612   1.930       .  S
C606        C607   1.414       .  A
C606       Br611   1.929       .  S
C607        C608   1.413       .  A
C608       Br609   1.927       .  S
C613        C614   1.412       .  A
C613        C618   1.407       .  A
C613       Br620   1.935       .  S
C614        C615   1.410       .  A
C615        C616   1.409       .  A
C615       Br622   1.931       .  S
C616        C617   1.412       .  A
C616       Br621   1.931       .  S
C617        C618   1.414       .  A
C618       Br619   1.934       .  S
C623        C624   1.413       .  A
C623        C628   1.413       .  A
C623       Br630   1.929       .  S
C624        C625   1.412       .  A
C625        C626   1.403       .  A
C625       Br632   1.926       .  S
C626        C627   1.407       .  A
C626       Br631   1.934       .  S
C627        C628   1.409       .  A
C628       Br629   1.928       .  S
C633        C634   1.411       .  A
C633        C638   1.401       .  A
C633       Br640   1.926       .  S
C634        C635   1.413       .  A
C635        C636   1.413       .  A
C635       Br642   1.928       .  S
C636        C637   1.410       .  A
C636       Br641   1.929       .  S
C637        C638   1.407       .  A
C638       Br639   1.931       .  S
C643        C644   1.413       .  A
C643        C648   1.412       .  A
C643       Br650   1.931       .  S
C644        C645   1.412       .  A
C645        C646   1.404       .  A
C645       Br652   1.935       .  S
C646        C647   1.410       .  A
C646       Br651   1.935       .  S
C647        C648   1.411       .  A
C648       Br649   1.930       .  S
C653        C654   1.410       .  A
C653        C658   1.405   1_545  A
C653       Br660   1.937       .  S
C654        C655   1.408       .  A
C655        C656   1.412   1_545  A
C655       Br662   1.930       .  S
C656        C657   1.417       .  A
C656       Br661   1.932       .  S
C657        C658   1.418       .  A
C658       Br659   1.938       .  S
C663        C664   1.408       .  A
C663        C668   1.409       .  A
C663       Br670   1.929       .  S
C664        C665   1.411       .  A
C665        C666   1.403       .  A
C665       Br672   1.934       .  S
C666        C667   1.408       .  A
C666       Br671   1.934       .  S
C667        C668   1.410       .  A
C668       Br669   1.929       .  S
C673        C674   1.411       .  A
C673        C678   1.407       .  A
C673       Br680   1.932       .  S
C674        C675   1.411       .  A
C675        C676   1.407       .  A
C675       Br682   1.931       .  S
C676        C677   1.409       .  A
C676       Br681   1.931       .  S
C677        C678   1.409       .  A
C678       Br679   1.931       .  S
C683        C684   1.410       .  A
C683        C688   1.409   1_565  A
C683       Br690   1.933       .  S
C684        C685   1.412       .  A
C685        C686   1.408   1_565  A
C685       Br692   1.933       .  S
C686        C687   1.412       .  A
C686       Br691   1.933       .  S
C687        C688   1.414       .  A
C688       Br689   1.933       .  S
C693        C694   1.413       .  A
C693        C698   1.407       .  A
C693       Br700   1.936       .  S
C694        C695   1.410       .  A
C695        C696   1.407       .  A
C695       Br702   1.933       .  S
C696        C697   1.415       .  A
C696       Br701   1.934       .  S
C697        C698   1.414       .  A
C698       Br699   1.935       .  S
C703        C704   1.415       .  A
C703        C708   1.409       .  A
C703       Br710   1.933       .  S
C704        C705   1.415       .  A
C705        C706   1.408       .  A
C705       Br712   1.934       .  S
C706        C707   1.411       .  A
C706       Br711   1.934       .  S
C707        C708   1.410       .  A
C708       Br709   1.933       .  S
C713        C714   1.411       .  A
C713        C718   1.412   1_554  A
C713       Br720   1.929       .  S
C714        C715   1.410       .  A
C715        C716   1.403   1_554  A
C715       Br722   1.936       .  S
C716        C717   1.412       .  A
C716       Br721   1.936       .  S
C717        C718   1.412       .  A
C718       Br719   1.929       .  S
C723        C724   1.409       .  A
C723        C728   1.403       .  A
C723       Br730   1.931       .  S
C724        C725   1.411       .  A
C725        C726   1.408       .  A
C725       Br732   1.930       .  S
C726        C727   1.408       .  A
C726       Br731   1.930       .  S
C727        C728   1.409       .  A
C728       Br729   1.933       .  S
C733        C734   1.413       .  A
C733        C738   1.409   1_655  A
C733       Br740   1.933       .  S
C734        C735   1.414       .  A
C735        C736   1.409   1_655  A
C735       Br742   1.933       .  S
C736        C737   1.411       .  A
C736       Br741   1.933       .  S
C737        C738   1.412       .  A
C738       Br739   1.932       .  S
C743        C744   1.411       .  A
C743        C748   1.407       .  A
C743       Br750   1.932       .  S
C744        C745   1.412       .  A
C745        C746   1.408       .  A
C745       Br752   1.929       .  S
C746        C747   1.408       .  A
C746       Br751   1.931       .  S
C747        C748   1.408       .  A
C748       Br749   1.929       .  S
C753        C754   1.408       .  A
C753        C758   1.405       .  A
C753       Br760   1.933       .  S
C754        C755   1.409       .  A
C755        C756   1.409       .  A
C755       Br762   1.928       .  S
C756        C757   1.411       .  A
C756       Br761   1.930       .  S
C757        C758   1.412       .  A
C758       Br759   1.931       .  S
C763        C764   1.416       .  A
C763        C768   1.410   1_655  A
C763       Br770   1.931       .  S
C764        C765   1.418       .  A
C765        C766   1.405   1_655  A
C765       Br772   1.934       .  S
C766        C767   1.408       .  A
C766       Br771   1.937       .  S
C767        C768   1.407       .  A
C768       Br769   1.930       .  S
C773        C774   1.412       .  A
C773        C778   1.407       .  A
C773       Br780   1.932       .  S
C774        C775   1.412       .  A
C775        C776   1.409       .  A
C775       Br782   1.932       .  S
C776        C777   1.410       .  A
C776       Br781   1.931       .  S
C777        C778   1.410       .  A
C778       Br779   1.932       .  S
C783        C784   1.413       .  A
C783        C788   1.410       .  A
C783       Br790   1.929       .  S
C784        C785   1.412       .  A
C785        C786   1.404       .  A
C785       Br792   1.931       .  S
C786        C787   1.406       .  A
C786       Br791   1.933       .  S
C787        C788   1.407       .  A
C788       Br789   1.927       .  S
