geometry optimzed in LAMMPS
_audit_creation_date              2020-11-30 
_audit_creation_method            'lammps2cif' 
_symmetry_space_group_name_H-M    'P1' 
_symmetry_Int_Tables_number       1 
_symmetry_cell_setting            triclinic 
loop_ 
_symmetry_equiv_pos_as_xyz 
  x,y,z 
_cell_length_a                    32.00804278 
_cell_length_b                    33.39348241116697 
_cell_length_c                    24.221847619956996 
_cell_angle_alpha                 89.67228117800515 
_cell_angle_beta                  90.18342069902313 
_cell_angle_gamma                 117.9288197055176 
loop_ 
_atom_site_label 
_atom_site_type_symbol 
_atom_site_fract_x 
_atom_site_fract_y 
_atom_site_fract_z 
_atom_site_charge 
C1          C  0.32902637  0.67054407  0.29797367     0.45000
H2          H  0.32821664  0.67120338  0.34377499    -0.04000
C3          C  0.33103507  0.66850041  0.19055274     0.45100
H4          H  0.33148381  0.66697487  0.14483658    -0.04000
C5          C  0.27864228  0.64603831  0.27171959    -0.17700
C6          C  0.35363174  0.71891259  0.27141602    -0.17400
C7          C  0.35617802  0.64554216  0.27497063    -0.17800
C8          C  0.27992654  0.64430008  0.21468223    -0.17800
C9          C  0.35613354  0.71757746  0.21428452    -0.17400
C10         C  0.35681161  0.64430072  0.21782694    -0.17700
O11         O  0.22858798  0.37059475  0.79546259    -0.81500
O12         O  0.13783508  0.34810492  0.67897470    -0.74900
O13         O  0.23300335  0.37860061  0.68557199    -0.74900
O14         O  0.13278634  0.33911555  0.79240214    -0.75000
O15         O  0.14585488  0.41063957  0.79903945    -0.74900
O16         O  0.24439384  0.44936056  0.69344954    -0.74900
O17         O  0.15087634  0.41943399  0.68797761    -0.74900
O18         O  0.23920520  0.44128077  0.80216564    -0.74900
Ni19       Ni  0.18214441  0.35617603  0.73788299     1.25400
Ni20       Ni  0.19498124  0.43235920  0.74588487     1.25400
C21         C  0.25109471  0.41089382  0.81488807     0.87300
C22         C  0.13148256  0.38155922  0.66300661     0.87300
C23         C  0.25690250  0.42101312  0.67446867     0.87300
C24         C  0.12408956  0.36925133  0.81431793     0.87500
O25         O  0.33620933  0.73803519  0.74815471    -0.74900
O26         O  0.27310102  0.64496397  0.85251942    -0.74900
O27         O  0.35225858  0.72393221  0.85245419    -0.74900
O28         O  0.25735857  0.66011377  0.74835082    -0.75000
O29         O  0.29660030  0.62393661  0.71856328    -0.74900
O30         O  0.39508328  0.69116412  0.82325514    -0.74900
O31         O  0.31247880  0.60859188  0.82374351    -0.74900
O32         O  0.37721988  0.70355898  0.71833155    -0.74900
Ni33       Ni  0.30345447  0.69284612  0.80173245     1.25400
Ni34       Ni  0.34700295  0.65529153  0.77039675     1.25400
C35         C  0.36634944  0.73581597  0.71562973     0.87300
C36         C  0.27978211  0.61017226  0.85252096     0.87300
C37         C  0.39054924  0.72102520  0.85204309     0.87300
C38         C  0.26143838  0.63233318  0.71574434     0.87500
O39         O  0.84073826  0.57652074  0.30070132    -0.74900
O40         O  0.74542776  0.53650460  0.19050065    -0.74900
O41         O  0.83960389  0.56936953  0.18976687    -0.74900
O42         O  0.74646762  0.54242578  0.29930704    -0.75000
O43         O  0.75388661  0.61197639  0.29171789    -0.74900
O44         O  0.85010033  0.64008266  0.18076219    -0.74900
O45         O  0.75483650  0.60669108  0.18227015    -0.74900
O46         O  0.85043447  0.64711927  0.29394328    -0.74900
Ni47       Ni  0.79327785  0.55404244  0.24537196     1.25400
Ni48       Ni  0.80317871  0.62935950  0.23704516     1.25400
C49         C  0.86019178  0.61777695  0.31654195     0.87300
C50         C  0.73222732  0.56445210  0.17089272     0.87300
C51         C  0.85836537  0.60777350  0.16531445     0.87300
C52         C  0.73189553  0.57112869  0.31021429     0.87500
O53         O  0.06731544  0.54058840  0.11998976    -0.81300
O54         O  0.89029058  0.44152602  0.95143156    -0.66000
O55         O  0.99528335  0.47052901  0.05243511    -1.12600
C56         C  0.09546036  0.52130133  0.90827067     1.05600
O57         O  0.92513121  0.44106109  0.87212038    -0.79200
O58         O  0.98415627  0.41492475  0.92270522    -0.66800
Ni59       Ni  0.99910644  0.50199127  0.11971963     1.34900
C60         C  0.01907727  0.41549264  0.94808567     0.84300
O61         O  0.89757727  0.42272244  0.05720525    -0.79800
O62         O  0.93211360  0.46655640  0.13088162    -0.90000
C63         C  0.88803765  0.43211757  0.89997426     0.83900
O64         O  0.99192466  0.54920499  0.08387011    -0.68200
O65         O  0.06159532  0.49033091  0.88122306    -0.87500
C66         C  0.95813876  0.54502840  0.05287315     0.84700
C67         C  0.89711328  0.43417094  0.10707656     1.06300
H68         H  0.99083413  0.52282797  0.94449871     0.38100
O69         O  0.99130074  0.49454417  0.95162572    -1.10200
O70         O  0.04570276  0.44925581  0.97869443    -0.66800
Ni71       Ni  0.04251230  0.50460824  0.00087152     1.26300
O72         O  0.93499300  0.50998040  0.02306032    -0.67100
O73         O  0.08745422  0.54016854  0.94854209    -0.79400
C74         C  0.10137912  0.53880665  0.09530582     0.84100
O75         O  0.09436670  0.51647813  0.05087398    -0.66500
Ni76       Ni  0.99274162  0.46715730  0.88261049     1.27400
Ni77       Ni  0.94284721  0.45765955  0.00304918     1.26100
H78         H  0.99603078  0.44263313  0.06136608     0.38600
O79         O  0.92082061  0.44729402  0.61859729    -0.81300
O80         O  0.09269816  0.54531344  0.44289079    -0.66000
O81         O  0.98948561  0.51432835  0.54604637    -1.12600
C82         C  0.88794633  0.46979058  0.40136152     1.05600
O83         O  0.05947953  0.55176370  0.36502555    -0.79200
O84         O  0.99895862  0.57405404  0.42074490    -0.66800
Ni85       Ni  0.98940019  0.48281505  0.61247803     1.34900
C86         C  0.96413578  0.57196409  0.44792801     0.84300
O87         O  0.08609808  0.56404890  0.54729478    -0.79800
O88         O  0.05777307  0.51544743  0.61822070    -0.90000
C89         C  0.09595646  0.55746677  0.39237200     0.83900
O90         O  0.99180619  0.43536405  0.57195090    -0.68200
O91         O  0.92278231  0.50071134  0.37537364    -0.87500
C92         C  0.02744036  0.44116624  0.54358478     0.84700
C93         C  0.09095266  0.54934002  0.59379473     1.06300
H94         H  0.99264573  0.46510171  0.43485727     0.38100
O95         O  0.99184866  0.49292976  0.44361387    -1.10200
O96         O  0.93788406  0.53694180  0.47705259    -0.66800
Ni97       Ni  0.94092240  0.48108628  0.49489221     1.26300
O98         O  0.05009602  0.47670219  0.51393369    -0.67100
O99         O  0.89410256  0.44894004  0.44172149    -0.79400
C100        C  0.88534809  0.44702994  0.59423060     0.84100
O101        O  0.88989618  0.46673402  0.54762886    -0.66500
Ni102      Ni  0.99136763  0.52418711  0.37660913     1.27400
Ni103      Ni  0.04066351  0.52870115  0.49472881     1.26100
H104        H  0.98883145  0.54194908  0.55630142     0.38600
O105        O  0.69371294  0.35244997  0.23012233    -0.74900
O106        O  0.58830577  0.29844269  0.32858011    -0.74900
O107        O  0.67124866  0.38185128  0.32164907    -0.74900
O108        O  0.61487986  0.27220161  0.23695444    -0.75000
O109        O  0.65424312  0.24532485  0.28807129    -0.74900
O110        O  0.70676589  0.35142004  0.37394828    -0.74900
O111        O  0.62780948  0.27129630  0.37940155    -0.74900
O112        O  0.73212607  0.32502904  0.28223310    -0.74900
Ni113      Ni  0.64028383  0.32748249  0.27807284     1.25400
Ni114      Ni  0.68138156  0.29743019  0.33303884     1.25400
C115        C  0.73018485  0.34730297  0.24001156     0.87300
C116        C  0.58932331  0.27149109  0.36581215     0.87300
C117        C  0.70239536  0.38563061  0.35762531     0.87300
C118        C  0.62658772  0.24117637  0.24797315     0.87500
O119        O  0.31516960  0.09782256  0.29527451    -0.74900
O120        O  0.34193803  0.18588776  0.18020832    -0.74900
O121        O  0.32360982  0.09818317  0.18303192    -0.74900
O122        O  0.33334859  0.18536270  0.29125700    -0.75000
O123        O  0.41067365  0.20806025  0.29948737    -0.74900
O124        O  0.40098838  0.12139707  0.19326095    -0.74900
O125        O  0.41907171  0.20807004  0.18892294    -0.74900
O126        O  0.39278858  0.12192314  0.30428579    -0.74900
Ni127      Ni  0.32558797  0.14081833  0.23711320     1.25400
Ni128      Ni  0.40851723  0.16543547  0.24675692     1.25400
C129        C  0.35015150  0.09672192  0.31965624     0.87300
C130        C  0.38497742  0.21181102  0.16609844     0.87300
C131        C  0.36150855  0.09687979  0.16936131     0.87300
C132        C  0.37372116  0.21121222  0.31272065     0.87500
O133        O  0.58371459  0.78135477  0.79380252    -0.74900
O134        O  0.60479101  0.86534056  0.67798912    -0.74900
O135        O  0.58169309  0.77773214  0.68285455    -0.74900
O136        O  0.60744166  0.86914890  0.78940977    -0.75000
O137        O  0.68428647  0.88833882  0.78909854    -0.74900
O138        O  0.65829706  0.79613695  0.68124752    -0.74900
O139        O  0.68176038  0.88524055  0.67566789    -0.74900
O140        O  0.66003571  0.79899446  0.79296642    -0.74900
Ni141      Ni  0.59188932  0.82301419  0.73601707     1.25400
Ni142      Ni  0.67407123  0.84304475  0.73466185     1.25400
C143        C  0.61803444  0.77569792  0.81223282     0.87300
C144        C  0.64573478  0.88796231  0.65662658     0.87300
C145        C  0.61570371  0.77160127  0.66483892     0.87300
C146        C  0.64929738  0.89248213  0.80816223     0.87500
O147        O  0.44528232  0.93007786  0.36278173    -0.81300
O148        O  0.52132971  0.08995333  0.54877860    -0.66000
O149        O  0.50260636  0.99626194  0.44202415    -1.12600
C150        C  0.45178394  0.89758427  0.59029939     1.05600
O151        O  0.54374001  0.06119124  0.61839028    -0.79200
O152        O  0.56513969  0.00086309  0.56934973    -0.66800
Ni153      Ni  0.46764088  0.99456229  0.37638050     1.34900
C154        C  0.56364974  0.96896695  0.53998175     0.84300
O155        O  0.54009866  0.08902083  0.44207048    -0.79800
O156        O  0.48485415  0.05937255  0.37775346    -0.90000
C157        C  0.54242941  0.09479860  0.59509147     0.83900
O158        O  0.41491138  0.97990577  0.42307624    -0.68200
O159        O  0.48531238  0.93069028  0.61496102    -0.87500
C160        C  0.41267838  0.01063031  0.45144143     0.84700
C161        C  0.51565740  0.09363020  0.40395849     1.06300
H162        H  0.44883597  0.99138834  0.55566041     0.38100
O163        O  0.47910358  0.99409298  0.54496977    -1.10200
O164        O  0.52749895  0.94465120  0.51027445    -0.66800
Ni165      Ni  0.46916080  0.94727625  0.49238148     1.26300
O166        O  0.44851390  0.03923864  0.47894461    -0.67100
O167        O  0.43553576  0.90125460  0.54403071    -0.79400
C168        C  0.44225765  0.89566353  0.38937039     0.84100
O169        O  0.45621330  0.89928370  0.43935561    -0.66500
Ni170      Ni  0.51290518  0.99597568  0.61085299     1.27400
Ni171      Ni  0.51025574  0.04265196  0.49474631     1.26100
H172        H  0.53297808  0.99873320  0.43226689     0.38600
O173        O  0.43690779  0.51697780  0.37139032    -0.81300
O174        O  0.52525538  0.42020328  0.53344606    -0.66000
O175        O  0.45410995  0.47311136  0.46163860    -1.12600
C176        C  0.55063971  0.60256649  0.55759114     1.05600
O177        O  0.54620364  0.46195801  0.60984343    -0.79200
O178        O  0.47316560  0.48228724  0.60500873    -0.66800
Ni179      Ni  0.44482232  0.46374124  0.38378405     1.34900
C180        C  0.44415667  0.49397930  0.58374709     0.84300
O181        O  0.44547266  0.38734991  0.47371849    -0.79800
O182        O  0.44619707  0.40680491  0.38569717    -0.90000
C183        C  0.54290525  0.42855521  0.58198756     0.83900
O184        O  0.51168598  0.49706622  0.37394730    -0.68200
O185        O  0.53821277  0.57230328  0.59488981    -0.87500
C186        C  0.54131502  0.48582479  0.39486165     0.84700
C187        C  0.43483770  0.37702987  0.42359668     1.06300
H188        H  0.56283085  0.51824466  0.50157215     0.38100
O189        O  0.53207102  0.50715988  0.51846721    -1.10200
O190        O  0.45631011  0.52434509  0.54617485    -0.66800
Ni191      Ni  0.49682157  0.53391873  0.48322462     1.26300
O192        O  0.52979526  0.45603546  0.43311721    -0.67100
O193        O  0.54073522  0.59301168  0.50709623    -0.79400
C194        C  0.44088012  0.55070534  0.39930073     0.84100
O195        O  0.46145284  0.56051852  0.44626787    -0.66500
Ni196      Ni  0.53981926  0.51565075  0.59671985     1.27400
Ni197      Ni  0.48959337  0.44653604  0.49663570     1.26100
H198        H  0.42351293  0.46199580  0.47895265     0.38600
O199        O  0.54251570  0.06189898  0.87457957    -0.81300
O200        O  0.48013224  0.89585673  0.04779971    -0.66000
O201        O  0.49686244  0.99662619  0.95627659    -1.12600
C202        C  0.56313462  0.08574169  0.10900031     1.05600
O203        O  0.47071033  0.92159420  0.12846923    -0.79200
O204        O  0.44703395  0.98507402  0.09076707    -0.66800
Ni205      Ni  0.52029081  0.99712315  0.88352858     1.34900
C206        C  0.44650243  0.01673570  0.06197829     0.84300
O207        O  0.45021244  0.90495225  0.95000540    -0.79800
O208        O  0.49957682  0.93168374  0.88037279    -0.90000
C209        C  0.46646830  0.88924103  0.09777331     0.83900
O210        O  0.57811440  0.00714937  0.91688910    -0.68200
O211        O  0.53046608  0.05136119  0.13269886    -0.87500
C212        C  0.58098346  0.97516268  0.94249352     0.84700
C213        C  0.46919506  0.89824097  0.90825717     1.06300
H214        H  0.55925665  0.99133717  0.05763390     0.38100
O215        O  0.52943136  0.99157976  0.05298405    -1.10200
O216        O  0.48236884  0.04464311  0.03403470    -0.66800
Ni217      Ni  0.53793653  0.04221874  0.00659809     1.26300
O218        O  0.54703660  0.94702097  0.97305023    -0.67100
O219        O  0.57643111  0.08543670  0.05977821    -0.79400
C220        C  0.55253997  0.09633220  0.90504855     0.84100
O221        O  0.54938047  0.09311334  0.95777044    -0.66500
Ni222      Ni  0.50170842  0.98695603  0.12409773     1.27400
Ni223      Ni  0.48983336  0.94703599  0.00195920     1.26100
H224        H  0.46674415  0.99655032  0.95292002     0.38600
O225        O  0.54676547  0.47595346  0.86617602    -0.81300
O226        O  0.45617721  0.55860075  0.04365304    -0.66000
O227        O  0.53024372  0.51436192  0.96150365    -1.12600
C228        C  0.44370329  0.37898296  0.05360544     1.05600
O229        O  0.43748548  0.51214388  0.11595402    -0.79200
O230        O  0.51572458  0.49848803  0.10490007    -0.66800
Ni231      Ni  0.53618451  0.52682478  0.88394889     1.34900
C232        C  0.54517616  0.48840108  0.08176369     0.84300
O233        O  0.53438518  0.59798794  0.98016993    -0.79800
O234        O  0.53088607  0.58161837  0.89101567    -0.90000
C235        C  0.43751681  0.54589704  0.09142530     0.83900
O236        O  0.46956126  0.49085167  0.87727758    -0.68200
O237        O  0.45528281  0.40765044  0.09236973    -0.87500
C238        C  0.43913790  0.49890966  0.90171668     0.84700
C239        C  0.54387817  0.61013605  0.93011206     1.06300
H240        H  0.42298421  0.46213162  0.00555705     0.38100
O241        O  0.45437091  0.47417222  0.02107741    -1.10200
O242        O  0.53432904  0.46109536  0.04126549    -0.66800
Ni243      Ni  0.49122471  0.45184336  0.98095953     1.26300
O244        O  0.45050472  0.52752814  0.94090265    -0.67100
O245        O  0.45102253  0.39073422  0.00322714    -0.79400
C246        C  0.54649634  0.44212858  0.89087514     0.84100
O247        O  0.52815501  0.42992397  0.93883513    -0.66500
Ni248      Ni  0.44905801  0.46200423  0.09861878     1.27400
Ni249      Ni  0.49337101  0.53673801  0.00164010     1.26100
H250        H  0.56154397  0.52635374  0.97726305     0.38600
C251        C  0.65589148  0.31745591  0.80000843     0.45000
H252        H  0.65533975  0.31840142  0.84560130    -0.04000
C253        C  0.65706711  0.31586353  0.69281373     0.45100
H254        H  0.65755796  0.31429700  0.64713439    -0.04000
C255        C  0.70702961  0.34277381  0.77574529    -0.17700
C256        C  0.63291665  0.26811420  0.77666089    -0.17400
C257        C  0.62839513  0.34059384  0.77260470    -0.17800
C258        C  0.70741719  0.34268369  0.71842032    -0.17800
C259        C  0.63333358  0.26759261  0.71927158    -0.17400
C260        C  0.62906456  0.33966793  0.71522543    -0.17700
C261        C  0.55423704  0.37062711  0.87458911    -0.26700
C262        C  0.56858839  0.41649427  0.86160342    -0.14800
C263        C  0.60374530  0.43686026  0.81970264     0.35800
C264        C  0.62334660  0.41196314  0.79359999    -0.26200
C265        C  0.60821143  0.36604779  0.80562299    -0.15400
C266        C  0.57286307  0.34528726  0.84674589     0.36900
N267        N  0.55329106  0.29795171  0.85921921    -0.89700
H268        H  0.52716049  0.35375472  0.90557803     0.18000
H269        H  0.65025793  0.42863673  0.76235226     0.18000
N270        N  0.62093876  0.48301378  0.80247018    -0.88700
H271        H  0.57985601  0.29151693  0.87523941     0.35400
H272        H  0.54074923  0.27972587  0.82259715     0.40500
H273        H  0.63350345  0.50404126  0.83695675     0.40100
H274        H  0.59337950  0.48665637  0.78394719     0.35000
C275        C  0.61132763  0.18009976  0.89394875    -0.26700
C276        C  0.56968364  0.14194844  0.87656142    -0.14800
C277        C  0.54752025  0.14676566  0.82821509     0.35800
C278        C  0.56680221  0.18835231  0.79872649    -0.26200
C279        C  0.61035636  0.22558946  0.81342992    -0.15400
C280        C  0.63211103  0.22106162  0.86259354     0.36900
N281        N  0.67656462  0.25719487  0.87981921    -0.89700
H282        H  0.62941761  0.17737157  0.93053263     0.18000
H283        H  0.54765519  0.19095517  0.76318029     0.18000
N284        N  0.50513737  0.10920919  0.80851519    -0.88700
H285        H  0.70114509  0.24487324  0.88152566     0.35400
H286        H  0.67248515  0.26664875  0.91970850     0.40500
H287        H  0.51141808  0.10200149  0.76835328     0.40100
H288        H  0.47866509  0.11914197  0.80664931     0.35000
C289        C  0.56009945  0.35417125  0.69020545    -0.26700
C290        C  0.60522923  0.35929799  0.67714329    -0.14800
C291        C  0.62694192  0.38330915  0.62796911     0.35800
C292        C  0.60410741  0.40205653  0.59441511    -0.26200
C293        C  0.56042738  0.39903963  0.60958656    -0.15400
C294        C  0.53841133  0.37489641  0.65822351     0.36900
N295        N  0.49467557  0.37290432  0.67603379    -0.89700
H296        H  0.54192864  0.33470013  0.72636921     0.18000
H297        H  0.62214781  0.42163019  0.55816248     0.18000
N298        N  0.67337504  0.39103406  0.61312196    -0.88700
H299        H  0.48339570  0.35487447  0.71314758     0.35400
H300        H  0.46897812  0.35476711  0.64640583     0.40500
H301        H  0.69541625  0.42601173  0.61069694     0.40100
H302        H  0.67151295  0.37740662  0.57389057     0.35000
C303        C  0.62561499  0.19127230  0.69214579    -0.26700
C304        C  0.61153804  0.22484738  0.68425790    -0.14800
C305        C  0.57542623  0.21642592  0.64491824     0.35800
C306        C  0.55425703  0.17487117  0.61504626    -0.26200
C307        C  0.56744764  0.14051868  0.62414154    -0.15400
C308        C  0.60440402  0.14974520  0.66302943     0.36900
N309        N  0.62084802  0.11696621  0.67288505    -0.89700
H310        H  0.65334681  0.19742175  0.72183047     0.18000
H311        H  0.52621509  0.16873847  0.58586409     0.18000
N312        N  0.55908174  0.24944266  0.63688446    -0.88700
H313        H  0.64702003  0.12819167  0.70338902     0.35400
H314        H  0.63682704  0.11418385  0.63654473     0.40500
H315        H  0.54442484  0.25242400  0.67417390     0.40100
H316        H  0.53168187  0.23798792  0.60797671     0.35000
C317        C  0.62534383  0.70521477  0.64189369    -0.26700
C318        C  0.60499450  0.73308388  0.62851708    -0.14800
C319        C  0.57133685  0.72052410  0.58534401     0.35800
C320        C  0.55684607  0.67913405  0.55870887    -0.26200
C321        C  0.57425683  0.64966359  0.57572696    -0.15400
C322        C  0.60991010  0.66327250  0.61631110     0.36900
N323        N  0.62881629  0.63352574  0.63284060    -0.89700
H324        H  0.65116160  0.71485023  0.67491309     0.18000
H325        H  0.52958158  0.66865289  0.52730273     0.18000
N326        N  0.55122155  0.74882570  0.56785299    -0.88700
H327        H  0.65418305  0.64833441  0.66388574     0.35400
H328        H  0.64630760  0.62930803  0.59875768     0.40500
H329        H  0.57881299  0.78057873  0.55738291     0.40100
H330        H  0.53192834  0.75250826  0.60030989     0.35000
C331        C  0.63816324  0.98192347  0.58684616    -0.26700
C332        C  0.60180587  0.95588577  0.54909364    -0.14800
C333        C  0.59666740  0.91288976  0.53360870     0.35800
C334        C  0.62115332  0.89432324  0.56307470    -0.26200
C335        C  0.64877331  0.91658879  0.60907205    -0.15400
C336        C  0.66095408  0.96216971  0.61793752     0.36900
N337        N  0.69167782  0.98616221  0.66296579    -0.89700
H338        H  0.64458880  0.01581192  0.59743313     0.18000
H339        H  0.61272754  0.85946692  0.55537352     0.18000
N340        N  0.56361779  0.88513604  0.49255208    -0.88700
H341        H  0.69592789  0.01911310  0.66537066     0.35400
H342        H  0.72500825  0.98918387  0.65429363     0.40500
H343        H  0.56919289  0.90420919  0.45638898     0.40100
H344        H  0.52921391  0.87420757  0.50687284     0.35000
C345        C  0.56739940  0.72729078  0.88838327    -0.26700
C346        C  0.60727177  0.73986329  0.85427734    -0.14800
C347        C  0.63091630  0.71325204  0.85464300     0.35800
C348        C  0.61146017  0.67252321  0.88471979    -0.26200
C349        C  0.56938728  0.65816710  0.91459078    -0.15400
C350        C  0.54816200  0.68652935  0.91864669     0.36900
N351        N  0.50512635  0.67205151  0.94945245    -0.89700
H352        H  0.54949953  0.74795673  0.88875921     0.18000
H353        H  0.62748165  0.65029473  0.88199440     0.18000
N354        N  0.67199016  0.72539230  0.82083461    -0.88700
H355        H  0.49308640  0.69619923  0.94661925     0.35400
H356        H  0.51303204  0.67037763  0.99103992     0.40500
H357        H  0.68295343  0.70044038  0.82299787     0.40100
H358        H  0.69948515  0.75470367  0.83759229     0.35000
C359        C  0.64790439  0.98882920  0.88060457    -0.26700
C360        C  0.61941069  0.96469490  0.92587226    -0.14800
C361        C  0.61786692  0.92318919  0.94149415     0.35800
C362        C  0.63547006  0.90233265  0.90487341    -0.26200
C363        C  0.65501508  0.92269951  0.85412738    -0.15400
C364        C  0.66471363  0.96753359  0.84359839     0.36900
N365        N  0.68631395  0.98897655  0.79233216    -0.89700
H366        H  0.65140654  0.02174339  0.86956098     0.18000
H367        H  0.62896826  0.86791925  0.91295968     0.18000
N368        N  0.59424397  0.90027387  0.99130573    -0.88700
H369        H  0.68957820  0.02159332  0.78995441     0.35400
H370        H  0.72063610  0.99276701  0.79208842     0.40500
H371        H  0.61325573  0.92061645  0.02446742     0.40100
H372        H  0.59524531  0.86956770  0.99573869     0.35000
C373        C  0.36591246  0.26899434  0.12457828    -0.26700
C374        C  0.39580105  0.24891005  0.12613148    -0.14800
C375        C  0.43832559  0.26862047  0.09544676     0.35800
C376        C  0.45154737  0.30948703  0.06691358    -0.26200
C377        C  0.42347733  0.33130540  0.06975641    -0.15400
C378        C  0.37984353  0.31039863  0.09789580     0.36900
N379        N  0.34996817  0.33151813  0.10197208    -0.89700
H380        H  0.33325526  0.25443608  0.14798265     0.18000
H381        H  0.48533860  0.32574305  0.04583257     0.18000
N382        N  0.46888449  0.24814904  0.09458197    -0.88700
H383        H  0.34226919  0.33817739  0.06204344     0.35400
H384        H  0.36823931  0.36228450  0.12274183     0.40500
H385        H  0.50184225  0.27150388  0.11014738     0.40100
H386        H  0.47348598  0.24168828  0.05346294     0.35000
C387        C  0.37450767  0.31602681  0.36821900    -0.26700
C388        C  0.41137557  0.32952076  0.40672333    -0.14800
C389        C  0.42921135  0.29970837  0.42193017     0.35800
C390        C  0.41302867  0.25858870  0.39367263    -0.26200
C391        C  0.37927595  0.24703128  0.35132375    -0.15400
C392        C  0.35777618  0.27468011  0.34060647     0.36900
N393        N  0.32211229  0.26267913  0.29858518    -0.89700
H394        H  0.36045314  0.33898160  0.35764189     0.18000
H395        H  0.42888427  0.23677248  0.40228176     0.18000
N396        N  0.46562343  0.31245618  0.46314765    -0.88700
H397        H  0.31222118  0.28822170  0.29368603     0.35400
H398        H  0.29200027  0.23406287  0.31259020     0.40500
H399        H  0.49598805  0.34013551  0.44783620     0.40100
H400        H  0.47449223  0.28636498  0.46956469     0.35000
C401        C  0.34320929  0.99707986  0.39476537    -0.26700
C402        C  0.37273024  0.02020800  0.43966037    -0.14800
C403        C  0.37624039  0.06230765  0.45527391     0.35800
C404        C  0.36203309  0.08558952  0.41747757    -0.26200
C405        C  0.34283463  0.06626028  0.36626566    -0.15400
C406        C  0.33005330  0.02068962  0.35649758     0.36900
N407        N  0.30951012  0.00036345  0.30470778    -0.89700
H408        H  0.33764307  0.96353183  0.38369578     0.18000
H409        H  0.37063632  0.12054138  0.42532328     0.18000
N410        N  0.39921131  0.08338001  0.50600034    -0.88700
H411        H  0.27792150  0.97100236  0.31279898     0.35400
H412        H  0.33253203  0.99080878  0.28512171     0.40500
H413        H  0.37853778  0.06287935  0.53834107     0.40100
H414        H  0.39998030  0.11484599  0.51043383     0.35000
C415        C  0.41141242  0.06791845  0.04924327    -0.26700
C416        C  0.40584335  0.02592551  0.06813724    -0.14800
C417        C  0.36891878  0.00060525  0.10585184     0.35800
C418        C  0.34767868  0.02276338  0.13453882    -0.26200
C419        C  0.36202641  0.06857704  0.12410203    -0.15400
C420        C  0.39054917  0.08989744  0.07780596     0.36900
N421        N  0.40303784  0.13570914  0.06288357    -0.89700
H422        H  0.43741830  0.08679621  0.01786515     0.18000
H423        H  0.32444459  0.00604055  0.16908925     0.18000
N424        N  0.35649968  0.95427339  0.11859183    -0.88700
H425        H  0.42166841  0.15691661  0.09549447     0.35400
H426        H  0.37186530  0.13798023  0.05681155     0.40500
H427        H  0.34304293  0.93551881  0.08249877     0.40100
H428        H  0.32925548  0.94106453  0.14774046     0.35000
C429        C  0.53251762  0.16831871  0.44204834    -0.26700
C430        C  0.51933845  0.13922433  0.39613812    -0.14800
C431        C  0.51057277  0.15483181  0.34533743     0.35800
C432        C  0.52254061  0.20102059  0.33986835    -0.26200
C433        C  0.54587001  0.23160009  0.38294565    -0.15400
C434        C  0.54538917  0.21424035  0.43580065     0.36900
N435        N  0.56346134  0.24430373  0.48181030    -0.89700
H436        H  0.53596702  0.15622940  0.48244767     0.18000
H437        H  0.52150435  0.21422070  0.29917729     0.18000
N438        N  0.49307843  0.12503242  0.29870371    -0.88700
H439        H  0.59176843  0.24099009  0.49881804     0.35400
H440        H  0.53668141  0.23364593  0.51140827     0.40500
H441        H  0.51864354  0.11537823  0.28787207     0.40100
H442        H  0.48904171  0.14218488  0.26451753     0.35000
C443        C  0.59980577  0.12546364  0.19422152    -0.26700
C444        C  0.58399055  0.12738253  0.14092910    -0.14800
C445        C  0.58077872  0.16589288  0.12314971     0.35800
C446        C  0.59353058  0.20229090  0.15932045    -0.26200
C447        C  0.60979408  0.20073844  0.21287559    -0.15400
C448        C  0.61286108  0.16167152  0.23058916     0.36900
N449        N  0.62870708  0.15849910  0.28535332    -0.89700
H450        H  0.60093532  0.09499866  0.20786175     0.18000
H451        H  0.59114699  0.23199159  0.14513886     0.18000
N452        N  0.56304911  0.16741416  0.06922179    -0.88700
H453        H  0.62967145  0.12786571  0.29091713     0.35400
H454        H  0.60379796  0.15825727  0.31333103     0.40500
H455        H  0.58887785  0.19558797  0.04833155     0.40100
H456        H  0.53318539  0.17216175  0.07374366     0.35000
C457        C  0.77457970  0.44967366  0.32797307    -0.26700
C458        C  0.74213265  0.42963999  0.37140484    -0.14800
C459        C  0.75922712  0.43511017  0.42571789     0.35800
C460        C  0.80757869  0.45028920  0.43446501    -0.26200
C461        C  0.83920736  0.46176442  0.38980896    -0.15400
C462        C  0.82331084  0.46523921  0.33647909     0.36900
N463        N  0.85556119  0.48043598  0.29063130    -0.89700
H464        H  0.76143590  0.44636501  0.28604542     0.18000
H465        H  0.82011314  0.45079258  0.47615181     0.18000
N466        N  0.72643451  0.41919814  0.47097340    -0.88700
H467        H  0.83743911  0.47802142  0.25378042     0.35400
H468        H  0.87841860  0.51492415  0.29629124     0.40500
H469        H  0.70918914  0.43913901  0.47197523     0.40100
H470        H  0.74450579  0.42440635  0.50846630     0.35000
C471        C  0.76673119  0.34938657  0.64439054    -0.26700
C472        C  0.75122261  0.37067645  0.68329486    -0.14800
C473        C  0.77847859  0.41832940  0.68952627     0.35800
C474        C  0.82099068  0.44284919  0.65889080    -0.26200
C475        C  0.83729700  0.42122470  0.62135565    -0.15400
C476        C  0.80956691  0.37382148  0.61434113     0.36900
N477        N  0.82538162  0.35041015  0.57706627    -0.89700
H478        H  0.74621901  0.31308457  0.63899375     0.18000
H479        H  0.84202010  0.47899841  0.66512927     0.18000
N480        N  0.76307818  0.44169091  0.72743398    -0.88700
H481        H  0.80111246  0.31591583  0.57591367     0.35400
H482        H  0.85683311  0.35265445  0.59290380     0.40500
H483        H  0.73072438  0.43829385  0.71316753     0.40100
H484        H  0.78669863  0.47637385  0.72754104     0.35000
C485        C  0.81571767  0.37858666  0.22672568    -0.26700
C486        C  0.77161484  0.36823937  0.20372177    -0.14800
C487        C  0.76844720  0.37833730  0.14757513     0.35800
C488        C  0.80995306  0.39898315  0.11588860    -0.26200
C489        C  0.85396270  0.40976779  0.13959503    -0.15400
C490        C  0.85676556  0.39937416  0.19535432     0.36900
N491        N  0.90130542  0.40951472  0.22021870    -0.89700
H492        H  0.81868608  0.37132078  0.26981679     0.18000
H493        H  0.80814276  0.40750712  0.07300339     0.18000
N494        N  0.72347989  0.36755964  0.12297234    -0.88700
H495        H  0.89936066  0.37925504  0.23517611     0.35400
H496        H  0.90650291  0.43081834  0.25388552     0.40500
H497        H  0.70333963  0.33225791  0.12281101     0.40100
H498        H  0.72771408  0.37806685  0.08169063     0.35000
C499        C  0.80029683  0.41102156  0.88865460    -0.26700
C500        C  0.84074320  0.40843908  0.87007234    -0.14800
C501        C  0.83539332  0.38201201  0.82224523     0.35800
C502        C  0.79158548  0.35989047  0.79465352    -0.26200
C503        C  0.75190200  0.36441370  0.81096585    -0.15400
C504        C  0.75656215  0.38997179  0.85939089     0.36900
N505        N  0.71757346  0.39596652  0.87836161    -0.89700
H506        H  0.80285504  0.43051350  0.92527960     0.18000
H507        H  0.78890515  0.33894781  0.75950191     0.18000
N508        N  0.87435329  0.37675569  0.80132863    -0.88700
H509        H  0.72816322  0.43070249  0.87921678     0.35400
H510        H  0.70977010  0.38354113  0.91879120     0.40500
H511        H  0.88050116  0.38860508  0.76056022     0.40100
H512        H  0.86461676  0.34218340  0.80092374     0.35000
C513        C  0.87477397  0.60939417  0.41355371    -0.26700
C514        C  0.89341300  0.62965660  0.36252255    -0.14800
C515        C  0.94155114  0.64544772  0.35163071     0.35800
C516        C  0.96861638  0.63441867  0.38829743    -0.26200
C517        C  0.94692407  0.60501257  0.43340238    -0.15400
C518        C  0.90105917  0.59662778  0.44915487     0.36900
N519        N  0.87906663  0.57079786  0.49778880    -0.89700
H520        H  0.83766261  0.59780541  0.42234089     0.18000
H521        H  0.00443665  0.64294684  0.37637806     0.18000
N522        N  0.96136199  0.66756490  0.30024072    -0.88700
H523        H  0.86871483  0.59017292  0.52248058     0.35400
H524        H  0.84855004  0.54169826  0.48588724     0.40500
H525        H  0.97347721  0.64786856  0.27891800     0.40100
H526        H  0.99053134  0.69878623  0.30897069     0.35000
C527        C  0.93689484  0.63260013  0.12364188    -0.26700
C528        C  0.88775816  0.61175336  0.11720405    -0.14800
C529        C  0.86671435  0.58113576  0.07321664     0.35800
C530        C  0.89344544  0.56545765  0.04371075    -0.26200
C531        C  0.94049102  0.57879937  0.05874459    -0.15400
C532        C  0.96391818  0.61688111  0.09369574     0.36900
N533        N  0.01406545  0.63647102  0.10247038    -0.89700
H534        H  0.95329561  0.65706801  0.15637236     0.18000
H535        H  0.87530096  0.53799094  0.01480021     0.18000
N536        N  0.81707837  0.56173065  0.06171884    -0.88700
H537        H  0.02548166  0.66370680  0.12981671     0.35400
H538        H  0.03052537  0.64984372  0.06467237     0.40500
H539        H  0.80881575  0.58816455  0.05494319     0.40100
H540        H  0.79799688  0.54302380  0.09593947     0.35000
C541        C  0.66791656  0.51155346  0.36572176    -0.26700
C542        C  0.68604889  0.55402954  0.33931151    -0.14800
C543        C  0.65615701  0.57404818  0.33174227     0.35800
C544        C  0.60909107  0.55119701  0.34996364    -0.26200
C545        C  0.59077918  0.50819762  0.37494676    -0.15400
C546        C  0.62073583  0.48829405  0.38270362     0.36900
N547        N  0.60310356  0.44366793  0.40574463    -0.89700
H548        H  0.68987772  0.49505548  0.37104301     0.18000
H549        H  0.58669406  0.56715073  0.34403649     0.18000
N550        N  0.67257231  0.61652246  0.30342225    -0.88700
H551        H  0.62322026  0.44569370  0.44072234     0.35400
H552        H  0.60813291  0.42320757  0.37678820     0.40500
H553        H  0.65112707  0.61148073  0.26876723     0.40100
H554        H  0.66831089  0.63907760  0.32969200     0.35000
C555        C  0.66023502  0.49924645  0.13486376    -0.26700
C556        C  0.68728111  0.54653792  0.14002906    -0.14800
C557        C  0.66720840  0.57464190  0.12397231     0.35800
C558        C  0.62026678  0.55494507  0.10582065    -0.26200
C559        C  0.59337629  0.50786507  0.10263271    -0.15400
C560        C  0.61349241  0.47981094  0.11653784     0.36900
N561        N  0.58583206  0.43147514  0.11419848    -0.89700
H562        H  0.67453929  0.47689521  0.14729920     0.18000
H563        H  0.60485361  0.57651044  0.09382850     0.18000
N564        N  0.69379486  0.62302450  0.12683388    -0.88700
H565        H  0.58508151  0.41836770  0.15370864     0.35400
H566        H  0.60284244  0.41906899  0.08781930     0.40500
H567        H  0.69465873  0.63623415  0.08736291     0.40100
H568        H  0.67593974  0.63468448  0.15299993     0.35000
C569        C  0.43795149  0.79689032  0.67403098    -0.26700
C570        C  0.38864866  0.77179653  0.67516209    -0.14800
C571        C  0.36064213  0.78533781  0.64332353     0.35800
C572        C  0.38220499  0.82575084  0.61357302    -0.26200
C573        C  0.43121411  0.85303250  0.61632808    -0.15400
C574        C  0.45953273  0.83785773  0.64495277     0.36900
N575        N  0.50999688  0.86392201  0.64433156    -0.89700
H576        H  0.45949409  0.78606302  0.69808764     0.18000
H577        H  0.36037866  0.83685375  0.59050835     0.18000
N578        N  0.31021964  0.75852695  0.64230025    -0.88700
H579        H  0.52367282  0.84370589  0.62761530     0.35400
H580        H  0.52184010  0.87151508  0.68506245     0.40500
H581        H  0.29973573  0.74973821  0.60131303     0.40100
H582        H  0.29530061  0.77856349  0.65627473     0.35000
C583        C  0.20804285  0.63772205  0.64739082    -0.26700
C584        C  0.22402751  0.61052443  0.67501743    -0.14800
C585        C  0.19860425  0.56316418  0.67119530     0.35800
C586        C  0.15489463  0.54353525  0.64406831    -0.26200
C587        C  0.13760955  0.57089345  0.61933263    -0.15400
C588        C  0.16524268  0.61825908  0.61896048     0.36900
N589        N  0.14886944  0.64670942  0.59226777    -0.89700
H590        H  0.22780774  0.67431338  0.65012959     0.18000
H591        H  0.13411367  0.50693787  0.64256850     0.18000
N592        N  0.21609692  0.53542090  0.69723987    -0.88700
H593        H  0.17410233  0.66655714  0.56292851     0.35400
H594        H  0.14683203  0.66841143  0.62184670     0.40500
H595        H  0.24686142  0.54127135  0.67642312     0.40100
H596        H  0.19230422  0.50128419  0.69201224     0.35000
C597        C  0.43752164  0.81826689  0.93930347    -0.26700
C598        C  0.46016713  0.85115121  0.89785011    -0.14800
C599        C  0.47428672  0.83816325  0.84906752     0.35800
C600        C  0.46089376  0.79216332  0.84021380    -0.26200
C601        C  0.43080636  0.75894197  0.87764768    -0.15400
C602        C  0.42284771  0.77244272  0.92953277     0.36900
N603        N  0.39396628  0.73902051  0.96925583    -0.89700
H604        H  0.42829937  0.82751103  0.97836080     0.18000
H605        H  0.46730013  0.78202149  0.80002535     0.18000
N606        N  0.49854444  0.87073126  0.80657927    -0.88700
H607        H  0.36392724  0.74301122  0.97634707     0.35400
H608        H  0.41294878  0.74556308  0.00622305     0.40500
H609        H  0.47746660  0.86091783  0.77114297     0.40100
H610        H  0.52992365  0.86973375  0.79787308     0.35000
C611        C  0.17837491  0.55438032  0.94060122    -0.26700
C612        C  0.14521350  0.53263891  0.89817191    -0.14800
C613        C  0.16087702  0.52375752  0.84783230     0.35800
C614        C  0.20949835  0.53979810  0.83961565    -0.26200
C615        C  0.24236081  0.56956132  0.87768061    -0.15400
C616        C  0.22678956  0.57391712  0.93017291     0.36900
N617        N  0.25991728  0.60304859  0.97030372    -0.89700
H618        H  0.16712927  0.55997617  0.98064852     0.18000
H619        H  0.22166733  0.53607167  0.79945456     0.18000
N620        N  0.12849005  0.50356921  0.80305956    -0.88700
H621        H  0.25560554  0.58414180  0.00635618     0.35400
H622        H  0.25138422  0.62892362  0.97949031     0.40500
H623        H  0.13175148  0.47576772  0.78892956     0.40100
H624        H  0.13844149  0.52721348  0.77085848     0.35000
C625        C  0.37084916  0.49866465  0.60013456    -0.26700
C626        C  0.39518762  0.47323033  0.60378433    -0.14800
C627        C  0.37216155  0.42874831  0.62538705     0.35800
C628        C  0.32554964  0.41140356  0.64453609    -0.26200
C629        C  0.30209411  0.43802543  0.64413409    -0.15400
C630        C  0.32539314  0.48222926  0.62098772     0.36900
N631        N  0.30506963  0.51228980  0.61978226    -0.89700
H632        H  0.38815300  0.53278641  0.58331807     0.18000
H633        H  0.30830296  0.37756215  0.66201908     0.18000
N634        N  0.39608368  0.40150903  0.62815768    -0.88700
H635        H  0.30319150  0.52182362  0.66025256     0.35400
H636        H  0.27140508  0.49567881  0.60213725     0.40500
H637        H  0.40246729  0.39511219  0.58767766     0.40100
H638        H  0.37441420  0.37000132  0.64625847     0.35000
C639        C  0.30936464  0.46472197  0.87979675    -0.26700
C640        C  0.29482860  0.42565749  0.84737678    -0.14800
C641        C  0.32744032  0.40919319  0.83644157     0.35800
C642        C  0.37387187  0.43328958  0.85540550    -0.26200
C643        C  0.38914943  0.47403853  0.88449821    -0.15400
C644        C  0.35613538  0.48935011  0.89769088     0.36900
N645        N  0.37018662  0.53094704  0.92685610    -0.89700
H646        H  0.28499246  0.47804186  0.88833352     0.18000
H647        H  0.39849563  0.42046842  0.84599069     0.18000
N648        N  0.31553912  0.36972112  0.80370581    -0.88700
H649        H  0.34959875  0.52379874  0.96256451     0.35400
H650        H  0.36280619  0.55254370  0.90193466     0.40500
H651        H  0.30551414  0.37496390  0.76435784     0.40100
H652        H  0.28725043  0.34207254  0.82240701     0.35000
C653        C  0.05353928  0.35699778  0.61960372    -0.26700
C654        C  0.10275742  0.37924816  0.61463089    -0.14800
C655        C  0.12403697  0.41202495  0.57276323     0.35800
C656        C  0.09665000  0.42668427  0.54189196    -0.26200
C657        C  0.04846591  0.41039173  0.55398115    -0.15400
C658        C  0.02609440  0.37235831  0.58960126     0.36900
N659        N  0.97617400  0.35178705  0.59914995    -0.89700
H660        H  0.03693184  0.33157695  0.65156608     0.18000
H661        H  0.11461647  0.45507432  0.51386203     0.18000
N662        N  0.17438300  0.43415779  0.56598452    -0.88700
H663        H  0.97064196  0.35441287  0.64121541     0.35400
H664        H  0.96175808  0.31737780  0.58956884     0.40500
H665        H  0.18706263  0.46878665  0.57312217     0.40100
H666        H  0.18176532  0.43020673  0.52496005     0.35000
C667        C  0.01527883  0.35793043  0.88085503    -0.26700
C668        C  0.03565694  0.38283595  0.92941523    -0.14800
C669        C  0.07956713  0.38707958  0.94708422     0.35800
C670        C  0.10590501  0.37463730  0.91131744    -0.26200
C671        C  0.08903531  0.35821838  0.85831475    -0.15400
C672        C  0.04227277  0.34691475  0.84422513     0.36900
N673        N  0.02474395  0.32984708  0.79001418    -0.89700
H674        H  0.98081829  0.35277750  0.86737181     0.18000
H675        H  0.14190189  0.38296949  0.92239910     0.18000
N676        N  0.09945632  0.40775102  0.99890623    -0.88700
H677        H  0.99018972  0.32490136  0.78506680     0.35400
H678        H  0.02320101  0.29798291  0.78674602     0.40500
H679        H  0.13167788  0.43656503  0.99120580     0.40100
H680        H  0.10639590  0.38490468  0.02183885     0.35000
C681        C  0.16834961  0.54348615  0.15438952    -0.26700
C682        C  0.15035116  0.56524881  0.11900153    -0.14800
C683        C  0.17744442  0.61294542  0.11190287     0.35800
C684        C  0.21990313  0.63733005  0.14200404    -0.26200
C685        C  0.23678791  0.61588673  0.17945049    -0.15400
C686        C  0.21104801  0.56780441  0.18404427     0.36900
N687        N  0.22725496  0.54220731  0.21765231    -0.89700
H688        H  0.14850137  0.50708870  0.15995502     0.18000
H689        H  0.23896681  0.67381008  0.13754895     0.18000
N690        N  0.16262836  0.63807062  0.07547409    -0.88700
H691        H  0.20332407  0.52786374  0.25017793     0.35400
H692        H  0.26034409  0.56262097  0.23498291     0.40500
H693        H  0.13137798  0.61689875  0.05482615     0.40100
H694        H  0.18856556  0.65286559  0.04500615     0.35000
C695        C  0.22543158  0.59355239  0.34758988    -0.26700
C696        C  0.23288483  0.62529264  0.30518598    -0.14800
C697        C  0.19604132  0.63640872  0.29429396     0.35800
C698        C  0.15213083  0.61343838  0.32240703    -0.26200
C699        C  0.14387610  0.58045587  0.36360760    -0.15400
C700        C  0.18169515  0.57105965  0.37659658     0.36900
N701        N  0.17541789  0.53800719  0.41839292    -0.89700
H702        H  0.25351350  0.58540605  0.35741987     0.18000
H703        H  0.12432734  0.62220103  0.31281395     0.18000
N704        N  0.20373119  0.67194311  0.25552235    -0.88700
H705        H  0.20633747  0.53506748  0.42329529     0.35400
H706        H  0.14940772  0.50655648  0.40445544     0.40500
H707        H  0.23076542  0.70213123  0.27116560     0.40100
H708        H  0.17366469  0.67651982  0.25228817     0.35000
C709        C  0.36455540  0.57419543  0.19601429    -0.26700
C710        C  0.37737215  0.61961850  0.18404344    -0.14800
C711        C  0.40799044  0.64012498  0.13866114     0.35800
C712        C  0.42620839  0.61567504  0.10788584    -0.26200
C713        C  0.41490618  0.57062370  0.12146008    -0.15400
C714        C  0.38274053  0.54981496  0.16583221     0.36900
N715        N  0.36752455  0.50337303  0.18031812    -0.89700
H716        H  0.33948190  0.55693947  0.22876036     0.18000
H717        H  0.45030037  0.63254305  0.07410796     0.18000
N718        N  0.42191988  0.68635100  0.12455721    -0.88700
H719        H  0.33068809  0.48572376  0.17686695     0.35400
H720        H  0.37639736  0.50213504  0.22166119     0.40500
H721        H  0.41200993  0.68738604  0.08361834     0.40100
H722        H  0.45877463  0.70459620  0.12694382     0.35000
C723        C  0.44813975  0.62033265  0.34933378    -0.26700
C724        C  0.41937048  0.57828941  0.37476548    -0.14800
C725        C  0.36968669  0.55971408  0.36924322     0.35800
C726        C  0.35010316  0.58324421  0.33879399    -0.26200
C727        C  0.37879090  0.62436065  0.31169353    -0.15400
C728        C  0.42851410  0.64308541  0.31757511     0.36900
N729        N  0.45997307  0.68489575  0.29110638    -0.89700
H730        H  0.48623930  0.63465320  0.35210367     0.18000
H731        H  0.31220253  0.56804927  0.33357117     0.18000
N732        N  0.33913442  0.51660959  0.39414223    -0.88700
H733        H  0.45474362  0.68104499  0.24848705     0.35400
H734        H  0.45134518  0.70991687  0.30402655     0.40500
H735        H  0.34450160  0.49191359  0.37371363     0.40100
H736        H  0.30366406  0.50829317  0.38781962     0.35000
C737        C  0.43226091  0.79024751  0.19825155    -0.26700
C738        C  0.38698297  0.75879168  0.17924201    -0.14800
C739        C  0.37135029  0.76838122  0.12861192     0.35800
C740        C  0.39947834  0.80951600  0.10015718    -0.26200
C741        C  0.44281246  0.84238282  0.12188378    -0.15400
C742        C  0.45911720  0.83221620  0.17145000     0.36900
N743        N  0.50259867  0.86498580  0.19554161    -0.89700
H744        H  0.44626122  0.78312883  0.23564242     0.18000
H745        H  0.38565663  0.81709599  0.06293437     0.18000
N746        N  0.32563760  0.73785084  0.10754837    -0.88700
H747        H  0.52492279  0.85021386  0.19964009     0.35400
H748        H  0.49518743  0.87232124  0.23512465     0.40500
H749        H  0.32993304  0.72771397  0.06817999     0.40100
H750        H  0.30600998  0.75544240  0.10373750     0.35000
C751        C  0.40362700  0.76993075  0.35027880    -0.26700
C752        C  0.37351473  0.76297562  0.30465975    -0.14800
C753        C  0.36471846  0.79939681  0.28934060     0.35800
C754        C  0.38815443  0.84184378  0.31635306    -0.26200
C755        C  0.41960507  0.84954048  0.36084165    -0.15400
C756        C  0.42629734  0.81227150  0.37830038     0.36900
N757        N  0.45684693  0.81729961  0.42392872    -0.89700
H758        H  0.41061200  0.74263238  0.36362573     0.18000
H759        H  0.38069652  0.86883515  0.30286993     0.18000
N760        N  0.33112333  0.79328255  0.24675149    -0.88700
H761        H  0.48354167  0.81012415  0.41017342     0.35400
H762        H  0.43715142  0.79318794  0.45388953     0.40500
H763        H  0.34821745  0.81790327  0.21630370     0.40100
H764        H  0.30451111  0.79913273  0.26377331     0.35000
loop_ 
_geom_bond_atom_site_label_1 
_geom_bond_atom_site_label_2 
_geom_bond_distance 
_geom_bond_site_symmetry_2 
_ccdc_geom_bond_type 
C1            H2   1.110       .  S
C1            C7   1.566       .  S
C1            C6   1.563       .  S
C1            C5   1.561       .  S
C3            H4   1.109       .  S
C3            C9   1.561       .  S
C3            C8   1.560       .  S
C3           C10   1.544       .  S
C5            C8   1.385       .  D
C5          C696   1.527       .  S
C6            C9   1.389       .  D
C6          C752   1.533       .  S
C7           C10   1.385       .  D
C7          C727   1.511       .  S
C8          C685   1.520       .  S
C9          C738   1.519       .  S
C10         C710   1.517       .  S
O11         Ni19   1.926       .  S
O11          C21   1.284       .  A
O12         Ni19   1.937       .  S
O12          C22   1.283       .  A
O13         Ni19   1.917       .  S
O13          C23   1.283       .  A
O14         Ni19   1.930       .  S
O14          C24   1.281       .  A
O15         Ni20   1.895       .  S
O15          C24   1.275       .  A
O16         Ni20   1.897       .  S
O16          C23   1.276       .  A
O17         Ni20   1.889       .  S
O17          C22   1.273       .  A
O18         Ni20   1.884       .  S
O18          C21   1.275       .  A
Ni19        Ni20   2.388       .  S
C21         C640   1.474       .  S
C22         C654   1.467       .  S
C23         C629   1.479       .  S
C24         C671   1.465       .  S
O25         Ni33   1.888       .  S
O25          C35   1.276       .  A
O26         Ni33   1.882       .  S
O26          C36   1.276       .  A
O27         Ni33   1.874       .  S
O27          C37   1.274       .  A
O28         Ni33   1.881       .  S
O28          C38   1.274       .  A
O29         Ni34   1.922       .  S
O29          C38   1.283       .  A
O30         Ni34   1.929       .  S
O30          C37   1.283       .  A
O31         Ni34   1.922       .  S
O31          C36   1.281       .  A
O32         Ni34   1.910       .  S
O32          C35   1.279       .  A
Ni33        Ni34   2.397       .  S
C35         C570   1.450       .  S
C36         C615   1.456       .  S
C37         C601   1.457       .  S
C38         C584   1.456       .  S
O39         Ni47   1.897       .  S
O39          C49   1.278       .  A
O40         Ni47   1.900       .  S
O40          C50   1.280       .  A
O41         Ni47   1.889       .  S
O41          C51   1.276       .  A
O42         Ni47   1.888       .  S
O42          C52   1.276       .  A
O43         Ni48   1.930       .  S
O43          C52   1.285       .  A
O44         Ni48   1.935       .  S
O44          C51   1.283       .  A
O45         Ni48   1.905       .  S
O45          C50   1.279       .  A
O46         Ni48   1.922       .  S
O46          C49   1.279       .  A
Ni47        Ni48   2.391       .  S
C49         C514   1.460       .  S
C50         C556   1.476       .  S
C51         C528   1.466       .  S
C52         C542   1.481       .  S
O53         Ni59   1.947   1_455  S
O53          C74   1.271       .  A
O54         Ni77   1.957   1_556  S
O54          C63   1.281       .  A
O55         Ni59   1.916       .  S
O55         Ni77   1.936       .  S
O55         Ni71   1.877   1_655  S
O55          H78   0.966       .  S
C56          O73   1.255       .  A
C56          O65   1.275       .  A
C56         C612   1.475       .  S
O57         Ni76   1.934       .  S
O57          C63   1.275       .  A
O58         Ni76   1.896       .  S
O58          C60   1.266   1_655  A
Ni59         O62   1.922       .  S
Ni59         O64   1.901       .  S
C60          O70   1.286       .  A
C60         C668   1.492       .  S
O61         Ni77   1.895       .  S
O61          C67   1.271       .  A
O62          C67   1.275       .  A
C63         C500   1.523       .  S
O64          C66   1.268       .  A
O65         Ni76   1.965   1_455  S
C66          O72   1.278       .  A
C66         C531   1.487       .  S
C67         C489   1.462       .  S
H68          O69   0.966       .  S
O69         Ni77   1.918   1_556  S
O69         Ni71   1.923   1_656  S
O69         Ni76   1.921       .  S
O70         Ni71   1.976   1_556  S
Ni71         O75   1.938       .  S
Ni71         O73   1.866   1_554  S
O72         Ni77   1.942       .  S
C74          O75   1.271       .  A
C74         C682   1.507       .  S
O79         Ni85   1.952       .  S
O79         C100   1.274       .  A
O80        Ni103   1.949       .  S
O80          C89   1.276       .  A
O81         Ni85   1.917       .  S
O81        Ni103   1.931   1_655  S
O81         Ni97   1.890       .  S
O81         H104   0.966       .  S
C82          O99   1.264       .  A
C82          O91   1.274       .  A
C82         C461   1.480       .  S
O83        Ni102   1.949   1_455  S
O83          C89   1.275       .  A
O84        Ni102   1.901       .  S
O84          C86   1.270       .  A
Ni85         O88   1.940   1_655  S
Ni85         O90   1.901       .  S
C86          O96   1.283       .  A
C86         C517   1.486       .  S
O87        Ni103   1.878       .  S
O87          C93   1.264       .  A
O88          C93   1.276       .  A
C89         C699   1.525       .  S
O90          C92   1.268   1_655  A
O91        Ni102   1.955       .  S
C92          O98   1.280       .  A
C92         C657   1.489       .  S
C93         C587   1.457       .  S
H94          O95   0.966       .  S
O95        Ni103   1.912   1_655  S
O95         Ni97   1.939       .  S
O95        Ni102   1.929       .  S
O96         Ni97   1.958       .  S
Ni97        O101   1.950       .  S
Ni97         O99   1.885       .  S
O98        Ni103   1.950       .  S
C100        O101   1.277       .  A
C100        C475   1.516       .  S
O105       Ni113   1.906       .  S
O105        C115   1.279       .  A
O106       Ni113   1.922       .  S
O106        C116   1.282       .  A
O107       Ni113   1.929       .  S
O107        C117   1.283       .  A
O108       Ni113   1.916       .  S
O108        C118   1.283       .  A
O109       Ni114   1.889       .  S
O109        C118   1.276       .  A
O110       Ni114   1.880       .  S
O110        C117   1.275       .  A
O111       Ni114   1.887       .  S
O111        C116   1.277       .  A
O112       Ni114   1.897       .  S
O112        C115   1.280       .  A
Ni113      Ni114   2.392       .  S
C115        C486   1.467       .  S
C116        C433   1.464       .  S
C117        C458   1.463       .  S
C118        C447   1.472       .  S
O119       Ni127   1.921       .  S
O119        C129   1.280       .  A
O120       Ni127   1.919       .  S
O120        C130   1.283       .  A
O121       Ni127   1.919       .  S
O121        C131   1.279       .  A
O122       Ni127   1.915       .  S
O122        C132   1.281       .  A
O123       Ni128   1.895       .  S
O123        C132   1.278       .  A
O124       Ni128   1.894       .  S
O124        C131   1.278       .  A
O125       Ni128   1.906       .  S
O125        C130   1.279       .  A
O126       Ni128   1.898       .  S
O126        C129   1.278       .  A
Ni127      Ni128   2.394       .  S
C129        C405   1.459       .  S
C130        C374   1.476       .  S
C131        C419   1.457       .  S
C132        C391   1.466       .  S
O133       Ni141   1.898       .  S
O133        C143   1.277       .  A
O134       Ni141   1.892       .  S
O134        C144   1.276       .  A
O135       Ni141   1.900       .  S
O135        C145   1.277       .  A
O136       Ni141   1.896       .  S
O136        C146   1.277       .  A
O137       Ni142   1.921       .  S
O137        C146   1.279       .  A
O138       Ni142   1.913       .  S
O138        C145   1.281       .  A
O139       Ni142   1.934       .  S
O139        C144   1.283       .  A
O140       Ni142   1.929       .  S
O140        C143   1.285       .  A
Ni141      Ni142   2.392       .  S
C143        C346   1.480       .  S
C144        C335   1.467       .  S
C145        C318   1.464       .  S
C146        C363   1.459       .  S
O147       Ni153   1.955       .  S
O147        C168   1.278       .  A
O148       Ni171   1.957       .  S
O148        C157   1.279       .  A
O149       Ni153   1.927       .  S
O149       Ni171   1.938   1_565  S
O149       Ni165   1.912       .  S
O149        H172   0.966       .  S
C150        O167   1.263       .  A
C150        O159   1.274       .  A
C150        C573   1.456       .  S
O151       Ni170   1.934   1_545  S
O151        C157   1.271       .  A
O152       Ni170   1.894   1_545  S
O152        C154   1.266   1_545  A
Ni153       O156   1.968   1_565  S
Ni153       O158   1.897       .  S
C154        O164   1.280       .  A
C154        C332   1.493       .  S
O155       Ni171   1.881       .  S
O155        C161   1.263       .  A
O156        C161   1.277       .  A
C157        C307   1.527       .  S
O158        C160   1.268   1_565  A
O159       Ni170   1.933       .  S
C160        O166   1.284       .  A
C160        C402   1.483       .  S
C161        C430   1.482       .  S
H162        O163   0.966       .  S
O163       Ni171   1.891   1_565  S
O163       Ni165   1.929       .  S
O163       Ni170   1.910       .  S
O164       Ni165   1.957       .  S
Ni165       O169   1.946       .  S
Ni165       O167   1.877       .  S
O166       Ni171   1.962       .  S
C168        O169   1.276       .  A
C168        C755   1.529       .  S
O173       Ni179   1.931       .  S
O173        C194   1.271       .  A
O174       Ni197   1.948       .  S
O174        C183   1.277       .  A
O175       Ni179   1.913       .  S
O175       Ni197   1.930       .  S
O175       Ni191   1.916       .  S
O175        H198   0.966       .  S
C176        O193   1.267       .  A
C176        O185   1.269       .  A
C176        C321   1.459       .  S
O177       Ni196   1.922       .  S
O177        C183   1.268       .  A
O178       Ni196   1.899       .  S
O178        C180   1.270       .  A
Ni179       O182   1.923       .  S
Ni179       O184   1.909       .  S
C180        O190   1.277       .  A
C180        C626   1.468       .  S
O181       Ni197   1.898       .  S
O181        C187   1.265       .  A
O182        C187   1.271       .  A
C183        C293   1.497       .  S
O184        C186   1.275       .  A
O185       Ni196   1.917       .  S
C186        O192   1.278       .  A
C186        C545   1.480       .  S
C187        C388   1.462       .  S
H188        O189   0.966       .  S
O189       Ni197   1.912       .  S
O189       Ni191   1.931       .  S
O189       Ni196   1.916       .  S
O190       Ni191   1.931       .  S
Ni191       O195   1.949       .  S
Ni191       O193   1.901       .  S
O192       Ni197   1.936       .  S
C194        O195   1.278       .  A
C194        C724   1.504       .  S
O199       Ni205   1.946   1_545  S
O199        C220   1.278       .  A
O200       Ni223   1.932       .  S
O200        C209   1.271       .  A
O201       Ni205   1.914       .  S
O201       Ni223   1.910   1_556  S
O201       Ni217   1.915   1_566  S
O201        H224   0.966       .  S
C202        O219   1.269       .  A
C202        O211   1.270       .  A
C202        C444   1.455       .  S
O203       Ni222   1.931       .  S
O203        C209   1.269       .  A
O204       Ni222   1.899       .  S
O204        C206   1.270   1_565  A
Ni205       O208   1.966       .  S
Ni205       O210   1.898   1_565  S
C206        O216   1.281       .  A
C206        C416   1.479       .  S
O207       Ni223   1.873   1_556  S
O207        C213   1.255       .  A
O208        C213   1.276       .  A
C209        C741   1.498       .  S
O210        C212   1.272   1_545  A
O211       Ni222   1.915   1_545  S
C212        O218   1.285       .  A
C212        C360   1.485       .  S
C213        C598   1.483       .  S
H214        O215   0.965       .  S
O215       Ni223   1.895       .  S
O215       Ni217   1.935   1_565  S
O215       Ni222   1.912       .  S
O216       Ni217   1.938       .  S
Ni217       O221   1.954   1_554  S
Ni217       O219   1.899       .  S
O218       Ni223   1.963   1_556  S
C220        O221   1.281       .  A
C220        C276   1.518       .  S
O225       Ni231   1.932       .  S
O225        C246   1.272       .  A
O226       Ni249   1.954       .  S
O226        C235   1.280       .  A
O227       Ni231   1.912       .  S
O227       Ni249   1.933   1_556  S
O227       Ni243   1.921       .  S
O227        H250   0.966       .  S
C228        O245   1.268       .  A
C228        O237   1.269       .  A
C228        C377   1.461       .  S
O229       Ni248   1.925       .  S
O229        C235   1.271       .  A
O230       Ni248   1.904       .  S
O230        C232   1.272       .  A
Ni231       O234   1.924       .  S
Ni231       O236   1.902       .  S
C232        O242   1.275       .  A
C232        C559   1.455       .  S
O233       Ni249   1.912   1_556  S
O233        C239   1.268       .  A
O234        C239   1.270       .  A
C235        C713   1.518       .  S
O236        C238   1.274       .  A
O237       Ni248   1.923       .  S
C238        O244   1.276       .  A
C238        C643   1.476       .  S
C239        C349   1.466       .  S
H240        O241   0.966       .  S
O241       Ni249   1.922       .  S
O241       Ni243   1.932   1_554  S
O241       Ni248   1.911       .  S
O242       Ni243   1.930   1_554  S
Ni243       O247   1.950       .  S
Ni243       O245   1.909   1_556  S
O244       Ni249   1.934   1_556  S
C246        O247   1.279       .  A
C246        C262   1.521       .  S
C251        H252   1.105       .  S
C251        C257   1.562       .  S
C251        C256   1.565       .  S
C251        C255   1.563       .  S
C253        H254   1.108       .  S
C253        C259   1.559       .  S
C253        C258   1.559       .  S
C253        C260   1.551       .  S
C255        C258   1.389       .  D
C255        C503   1.530       .  S
C256        C259   1.390       .  D
C256        C279   1.536       .  S
C257        C260   1.391       .  D
C257        C265   1.518       .  S
C258        C472   1.528       .  S
C259        C304   1.523       .  S
C260        C290   1.523       .  S
C261        C262   1.411       .  A
C261        C266   1.417       .  A
C261        H268   1.083       .  S
C262        C263   1.429       .  A
C263        C264   1.408       .  A
C263        N270   1.432       .  S
C264        C265   1.404       .  A
C264        H269   1.084       .  S
C265        C266   1.420       .  A
C266        N267   1.432       .  S
N267        H271   1.043       .  S
N267        H272   1.046       .  S
N270        H273   1.045       .  S
N270        H274   1.045       .  S
C275        C276   1.410       .  A
C275        C280   1.425       .  A
C275        H282   1.084       .  S
C276        C277   1.414       .  A
C277        C278   1.417       .  A
C277        N284   1.432       .  S
C278        C279   1.412       .  A
C278        H283   1.082       .  S
C279        C280   1.420       .  A
C280        N281   1.431       .  S
N281        H285   1.045       .  S
N281        H286   1.046       .  S
N284        H287   1.046       .  S
N284        H288   1.045       .  S
C289        C290   1.409       .  A
C289        C294   1.415       .  A
C289        H296   1.082       .  S
C290        C291   1.420       .  A
C291        C292   1.416       .  A
C291        N298   1.431       .  S
C292        C293   1.404       .  A
C292        H297   1.084       .  S
C293        C294   1.413       .  A
C294        N295   1.438       .  S
N295        H299   1.046       .  S
N295        H300   1.045       .  S
N298        H301   1.045       .  S
N298        H302   1.045       .  S
C303        C304   1.402       .  A
C303        C308   1.417       .  A
C303        H310   1.083       .  S
C304        C305   1.419       .  A
C305        C306   1.427       .  A
C305        N312   1.437       .  S
C306        C307   1.412       .  A
C306        H311   1.083       .  S
C307        C308   1.427       .  A
C308        N309   1.438       .  S
N309        H313   1.046       .  S
N309        H314   1.046       .  S
N312        H315   1.046       .  S
N312        H316   1.044       .  S
C317        C318   1.399       .  A
C317        C322   1.396       .  A
C317        H324   1.084       .  S
C318        C319   1.416       .  A
C319        C320   1.396       .  A
C319        N326   1.432       .  S
C320        C321   1.399       .  A
C320        H325   1.084       .  S
C321        C322   1.410       .  A
C322        N323   1.439       .  S
N323        H327   1.046       .  S
N323        H328   1.045       .  S
N326        H329   1.044       .  S
N326        H330   1.044       .  S
C331        C332   1.415       .  A
C331        C336   1.406       .  A
C331        H338   1.083   1_565  S
C332        C333   1.419       .  A
C333        C334   1.398       .  A
C333        N340   1.433       .  S
C334        C335   1.401       .  A
C334        H339   1.082       .  S
C335        C336   1.401       .  A
C336        N337   1.437       .  S
N337        H341   1.046   1_565  S
N337        H342   1.045       .  S
N340        H343   1.045       .  S
N340        H344   1.044       .  S
C345        C346   1.410       .  A
C345        C350   1.406       .  A
C345        H352   1.084       .  S
C346        C347   1.412       .  A
C347        C348   1.402       .  A
C347        N354   1.438       .  S
C348        C349   1.402       .  A
C348        H353   1.084       .  S
C349        C350   1.404       .  A
C350        N351   1.438       .  S
N351        H355   1.046       .  S
N351        H356   1.045       .  S
N354        H357   1.046       .  S
N354        H358   1.045       .  S
C359        C360   1.411       .  A
C359        C364   1.403       .  A
C359        H366   1.083   1_565  S
C360        C361   1.413       .  A
C361        C362   1.403       .  A
C361        N368   1.437       .  S
C362        C363   1.401       .  A
C362        H367   1.084       .  S
C363        C364   1.401       .  A
C364        N365   1.437       .  S
N365        H369   1.046   1_565  S
N365        H370   1.045       .  S
N368        H371   1.045   1_556  S
N368        H372   1.046       .  S
C373        C374   1.402       .  A
C373        C378   1.394       .  A
C373        H380   1.084       .  S
C374        C375   1.414       .  A
C375        C376   1.403       .  A
C375        N382   1.432       .  S
C376        C377   1.399       .  A
C376        H381   1.084       .  S
C377        C378   1.411       .  A
C378        N379   1.433       .  S
N379        H383   1.045       .  S
N379        H384   1.045       .  S
N382        H385   1.046       .  S
N382        H386   1.046       .  S
C387        C388   1.402       .  A
C387        C392   1.399       .  A
C387        H394   1.084       .  S
C388        C389   1.407       .  A
C389        C390   1.402       .  A
C389        N396   1.438       .  S
C390        C391   1.405       .  A
C390        H395   1.084       .  S
C391        C392   1.409       .  A
C392        N393   1.438       .  S
N393        H397   1.046       .  S
N393        H398   1.045       .  S
N396        H399   1.046       .  S
N396        H400   1.046       .  S
C401        C402   1.411   1_565  A
C401        C406   1.399   1_565  A
C401        H408   1.084       .  S
C402        C403   1.411       .  A
C403        C404   1.403       .  A
C403        N410   1.437       .  S
C404        C405   1.402       .  A
C404        H409   1.084       .  S
C405        C406   1.400       .  A
C406        N407   1.433       .  S
N407        H411   1.045   1_545  S
N407        H412   1.046   1_545  S
N410        H413   1.045       .  S
N410        H414   1.046       .  S
C415        C416   1.402       .  A
C415        C420   1.390       .  A
C415        H422   1.084       .  S
C416        C417   1.417       .  A
C417        C418   1.405       .  A
C417        N424   1.437   1_545  S
C418        C419   1.398       .  A
C418        H423   1.084       .  S
C419        C420   1.409       .  A
C420        N421   1.433       .  S
N421        H425   1.043       .  S
N421        H426   1.045       .  S
N424        H427   1.046       .  S
N424        H428   1.046       .  S
C429        C430   1.409       .  A
C429        C434   1.396       .  A
C429        H436   1.081       .  S
C430        C431   1.411       .  A
C431        C432   1.410       .  A
C431        N438   1.438       .  S
C432        C433   1.408       .  A
C432        H437   1.084       .  S
C433        C434   1.399       .  A
C434        N435   1.431       .  S
N435        H439   1.046       .  S
N435        H440   1.044       .  S
N438        H441   1.045       .  S
N438        H442   1.046       .  S
C443        C444   1.397       .  A
C443        C448   1.396       .  A
C443        H450   1.084       .  S
C444        C445   1.403       .  A
C445        C446   1.399       .  A
C445        N452   1.433       .  S
C446        C447   1.406       .  A
C446        H451   1.084       .  S
C447        C448   1.417       .  A
C448        N449   1.440       .  S
N449        H453   1.046       .  S
N449        H454   1.045       .  S
N452        H455   1.046       .  S
N452        H456   1.046       .  S
C457        C458   1.407       .  A
C457        C462   1.409       .  A
C457        H464   1.084       .  S
C458        C459   1.403       .  A
C459        C460   1.400       .  A
C459        N466   1.437       .  S
C460        C461   1.407       .  A
C460        H465   1.083       .  S
C461        C462   1.411       .  A
C462        N463   1.438       .  S
N463        H467   1.046       .  S
N463        H468   1.045       .  S
N466        H469   1.046       .  S
N466        H470   1.046       .  S
C471        C472   1.408       .  A
C471        C476   1.424       .  A
C471        H478   1.083       .  S
C472        C473   1.420       .  A
C473        C474   1.424       .  A
C473        N480   1.437       .  S
C474        C475   1.409       .  A
C474        H479   1.083       .  S
C475        C476   1.417       .  A
C476        N477   1.437       .  S
N477        H481   1.046       .  S
N477        H482   1.046       .  S
N480        H483   1.045       .  S
N480        H484   1.045       .  S
C485        C486   1.401       .  A
C485        C490   1.390       .  A
C485        H492   1.084       .  S
C486        C487   1.414       .  A
C487        C488   1.404       .  A
C487        N494   1.438       .  S
C488        C489   1.402       .  A
C488        H493   1.084       .  S
C489        C490   1.406       .  A
C490        N491   1.433       .  S
N491        H495   1.046       .  S
N491        H496   1.046       .  S
N494        H497   1.046       .  S
N494        H498   1.046       .  S
C499        C500   1.412       .  A
C499        C504   1.426       .  A
C499        H506   1.083       .  S
C500        C501   1.421       .  A
C501        C502   1.410       .  A
C501        N508   1.433       .  S
C502        C503   1.406       .  A
C502        H507   1.082       .  S
C503        C504   1.420       .  A
C504        N505   1.431       .  S
N505        H509   1.045       .  S
N505        H510   1.046       .  S
N508        H511   1.046       .  S
N508        H512   1.046       .  S
C513        C514   1.400       .  A
C513        C518   1.400       .  A
C513        H520   1.085       .  S
C514        C515   1.401       .  A
C515        C516   1.402       .  A
C515        N522   1.433       .  S
C516        C517   1.412       .  A
C516        H521   1.084   1_655  S
C517        C518   1.413       .  A
C518        N519   1.433       .  S
N519        H523   1.045       .  S
N519        H524   1.046       .  S
N522        H525   1.046       .  S
N522        H526   1.045       .  S
C527        C528   1.399       .  A
C527        C532   1.408       .  A
C527        H534   1.084       .  S
C528        C529   1.413       .  A
C529        C530   1.395       .  A
C529        N536   1.434       .  S
C530        C531   1.403       .  A
C530        H535   1.084       .  S
C531        C532   1.418       .  A
C532        N533   1.437   1_655  S
N533        H537   1.046       .  S
N533        H538   1.046       .  S
N536        H539   1.045       .  S
N536        H540   1.044       .  S
C541        C542   1.407       .  A
C541        C546   1.398       .  A
C541        H548   1.084       .  S
C542        C543   1.412       .  A
C543        C544   1.404       .  A
C543        N550   1.432       .  S
C544        C545   1.406       .  A
C544        H549   1.084       .  S
C545        C546   1.411       .  A
C546        N547   1.434       .  S
N547        H551   1.046       .  S
N547        H552   1.046       .  S
N550        H553   1.046       .  S
N550        H554   1.045       .  S
C555        C556   1.407       .  A
C555        C560   1.395       .  A
C555        H562   1.084       .  S
C556        C557   1.416       .  A
C557        C558   1.399       .  A
C557        N564   1.433       .  S
C558        C559   1.397       .  A
C558        H563   1.084       .  S
C559        C560   1.402       .  A
C560        N561   1.433       .  S
N561        H565   1.046       .  S
N561        H566   1.045       .  S
N564        H567   1.046       .  S
N564        H568   1.046       .  S
C569        C570   1.398       .  A
C569        C574   1.397       .  A
C569        H576   1.084       .  S
C570        C571   1.405       .  A
C571        C572   1.392       .  A
C571        N578   1.433       .  S
C572        C573   1.399       .  A
C572        H577   1.084       .  S
C573        C574   1.408       .  A
C574        N575   1.432       .  S
N575        H579   1.045       .  S
N575        H580   1.045       .  S
N578        H581   1.046       .  S
N578        H582   1.046       .  S
C583        C584   1.400       .  A
C583        C588   1.392       .  A
C583        H590   1.084       .  S
C584        C585   1.403       .  A
C585        C586   1.400       .  A
C585        N592   1.431       .  S
C586        C587   1.402       .  A
C586        H591   1.085       .  S
C587        C588   1.405       .  A
C588        N589   1.433       .  S
N589        H593   1.046       .  S
N589        H594   1.046       .  S
N592        H595   1.041       .  S
N592        H596   1.041       .  S
C597        C598   1.409       .  A
C597        C602   1.396       .  A
C597        H604   1.081       .  S
C598        C599   1.408       .  A
C599        C600   1.406       .  A
C599        N606   1.430       .  S
C600        C601   1.405       .  A
C600        H605   1.084       .  S
C601        C602   1.401       .  A
C602        N603   1.433       .  S
N603        H607   1.046       .  S
N603        H608   1.046   1_556  S
N606        H609   1.045       .  S
N606        H610   1.043       .  S
C611        C612   1.411       .  A
C611        C616   1.394       .  A
C611        H618   1.083       .  S
C612        C613   1.405       .  A
C613        C614   1.403       .  A
C613        N620   1.432       .  S
C614        C615   1.403       .  A
C614        H619   1.078       .  S
C615        C616   1.400       .  A
C616        N617   1.433       .  S
N617        H621   1.046   1_556  S
N617        H622   1.046       .  S
N620        H623   1.041       .  S
N620        H624   1.045       .  S
C625        C626   1.398       .  A
C625        C630   1.388       .  A
C625        H632   1.084       .  S
C626        C627   1.411       .  A
C627        C628   1.403       .  A
C627        N634   1.439       .  S
C628        C629   1.407       .  A
C628        H633   1.083       .  S
C629        C630   1.418       .  A
C630        N631   1.429       .  S
N631        H635   1.043       .  S
N631        H636   1.045       .  S
N634        H637   1.046       .  S
N634        H638   1.046       .  S
C639        C640   1.406       .  A
C639        C644   1.397       .  A
C639        H646   1.085       .  S
C640        C641   1.415       .  A
C641        C642   1.395       .  A
C641        N648   1.432       .  S
C642        C643   1.405       .  A
C642        H647   1.084       .  S
C643        C644   1.411       .  A
C644        N645   1.433       .  S
N645        H649   1.046       .  S
N645        H650   1.046       .  S
N648        H651   1.044       .  S
N648        H652   1.045       .  S
C653        C654   1.397       .  A
C653        C658   1.406       .  A
C653        H660   1.084       .  S
C654        C655   1.408       .  A
C655        C656   1.400       .  A
C655        N662   1.433       .  S
C656        C657   1.405       .  A
C656        H661   1.084       .  S
C657        C658   1.418       .  A
C658        N659   1.432   1_455  S
N659        H663   1.046       .  S
N659        H664   1.045       .  S
N662        H665   1.046       .  S
N662        H666   1.045       .  S
C667        C668   1.414       .  A
C667        C672   1.405       .  A
C667        H674   1.083   1_455  S
C668        C669   1.410       .  A
C669        C670   1.404       .  A
C669        N676   1.432       .  S
C670        C671   1.402       .  A
C670        H675   1.084       .  S
C671        C672   1.403       .  A
C672        N673   1.438       .  S
N673        H677   1.046   1_455  S
N673        H678   1.045       .  S
N676        H679   1.046       .  S
N676        H680   1.045   1_556  S
C681        C682   1.406       .  A
C681        C686   1.416       .  A
C681        H688   1.084       .  S
C682        C683   1.422       .  A
C683        C684   1.416       .  A
C683        N690   1.438       .  S
C684        C685   1.407       .  A
C684        H689   1.082       .  S
C685        C686   1.424       .  A
C686        N687   1.438       .  S
N687        H691   1.045       .  S
N687        H692   1.042       .  S
N690        H693   1.044       .  S
N690        H694   1.046       .  S
C695        C696   1.410       .  A
C695        C700   1.426       .  A
C695        H702   1.080       .  S
C696        C697   1.416       .  A
C697        C698   1.420       .  A
C697        N704   1.437       .  S
C698        C699   1.413       .  A
C698        H703   1.083       .  S
C699        C700   1.420       .  A
C700        N701   1.437       .  S
N701        H705   1.046       .  S
N701        H706   1.046       .  S
N704        H707   1.046       .  S
N704        H708   1.045       .  S
C709        C710   1.402       .  A
C709        C714   1.411       .  A
C709        H716   1.082       .  S
C710        C711   1.417       .  A
C711        C712   1.421       .  A
C711        N718   1.431       .  S
C712        C713   1.410       .  A
C712        H717   1.083       .  S
C713        C714   1.424       .  A
C714        N715   1.433       .  S
N715        H719   1.046       .  S
N715        H720   1.046       .  S
N718        H721   1.045       .  S
N718        H722   1.045       .  S
C723        C724   1.408       .  A
C723        C728   1.415       .  A
C723        H730   1.083       .  S
C724        C725   1.417       .  A
C725        C726   1.416       .  A
C725        N732   1.438       .  S
C726        C727   1.404       .  A
C726        H731   1.081       .  S
C727        C728   1.418       .  A
C728        N729   1.432       .  S
N729        H733   1.044       .  S
N729        H734   1.045       .  S
N732        H735   1.045       .  S
N732        H736   1.046       .  S
C737        C738   1.411       .  A
C737        C742   1.410       .  A
C737        H744   1.083       .  S
C738        C739   1.414       .  A
C739        C740   1.417       .  A
C739        N746   1.430       .  S
C740        C741   1.408       .  A
C740        H745   1.083       .  S
C741        C742   1.409       .  A
C742        N743   1.432       .  S
N743        H747   1.045       .  S
N743        H748   1.046       .  S
N746        H749   1.044       .  S
N746        H750   1.045       .  S
C751        C752   1.411       .  A
C751        C756   1.426       .  A
C751        H758   1.083       .  S
C752        C753   1.418       .  A
C753        C754   1.418       .  A
C753        N760   1.432       .  S
C754        C755   1.412       .  A
C754        H759   1.083       .  S
C755        C756   1.420       .  A
C756        N757   1.431       .  S
N757        H761   1.045       .  S
N757        H762   1.046       .  S
N760        H763   1.046       .  S
N760        H764   1.045       .  S
