geometry optimzed in LAMMPS
_audit_creation_date              2020-11-30 
_audit_creation_method            'lammps2cif' 
_symmetry_space_group_name_H-M    'P1' 
_symmetry_Int_Tables_number       1 
_symmetry_cell_setting            triclinic 
loop_ 
_symmetry_equiv_pos_as_xyz 
  x,y,z 
_cell_length_a                    48.73484199 
_cell_length_b                    49.086049875405955 
_cell_length_c                    40.80062121200632 
_cell_angle_alpha                 89.97156491018625 
_cell_angle_beta                  89.9301066416157 
_cell_angle_gamma                 89.9770277021259 
loop_ 
_atom_site_label 
_atom_site_type_symbol 
_atom_site_fract_x 
_atom_site_fract_y 
_atom_site_fract_z 
_atom_site_charge 
C1          C  0.23993593  0.11510465  0.38710737     0.86700
C2          C  0.21605516  0.13575041  0.38966029    -0.53500
C3          C  0.21774336  0.15653830  0.36768535     0.09600
C4          C  0.24280213  0.15526971  0.34511895     0.20600
C5          C  0.24007075  0.10591726  0.35102444    -0.54300
C6          C  0.24151708  0.12698606  0.32926975     0.09700
C7          C  0.26580144  0.13306730  0.39072587    -0.53800
C8          C  0.26720644  0.15383746  0.36860168     0.10300
H9          H  0.20001548  0.13532667  0.40805295     0.14800
H10         H  0.24400847  0.17237644  0.32729468     0.00600
H11         H  0.23912690  0.08472324  0.34345833     0.15100
H12         H  0.28141424  0.12985686  0.40931544     0.14900
C13         C  0.12574589  0.24752787  0.39084488     0.86700
C14         C  0.14651516  0.27111680  0.39439936    -0.53500
C15         C  0.16755709  0.27002171  0.37245737     0.09600
C16         C  0.16644456  0.24560330  0.34912211     0.20600
C17         C  0.11673254  0.24825406  0.35471115    -0.54300
C18         C  0.13807970  0.24723931  0.33311138     0.09700
C19         C  0.14376541  0.22172758  0.39379217    -0.53800
C20         C  0.16470690  0.22076796  0.37169539     0.10300
H21         H  0.14549974  0.28682641  0.41304051     0.14800
H22         H  0.18373755  0.24475504  0.33134144     0.00600
H23         H  0.09542840  0.24920194  0.34699432     0.15100
H24         H  0.14036324  0.20564502  0.41163057     0.14900
C25         C  0.37129101  0.23151168  0.38841294     0.86700
C26         C  0.35023210  0.20801214  0.39113776    -0.53500
C27         C  0.32916785  0.20992091  0.36937087     0.09600
C28         C  0.33055489  0.23487962  0.34687703     0.20600
C29         C  0.38024267  0.23133888  0.35214019    -0.54300
C30         C  0.35888004  0.23302692  0.33061557     0.09700
C31         C  0.35369961  0.25743940  0.39212780    -0.53800
C32         C  0.33267340  0.25919603  0.37030614     0.10300
H33         H  0.35094205  0.19152698  0.40874290     0.14800
H34         H  0.31323363  0.23632654  0.32924571     0.00600
H35         H  0.40150070  0.22989882  0.34429059     0.15100
H36         H  0.35760071  0.27307983  0.41037637     0.14900
C37         C  0.25685699  0.36482490  0.39012256     0.86700
C38         C  0.28092370  0.34426086  0.39254655    -0.53500
C39         C  0.27914222  0.32331017  0.37071900     0.09600
C40         C  0.25389582  0.32439062  0.34855928     0.20600
C41         C  0.25652140  0.37375270  0.35393618    -0.54300
C42         C  0.25508661  0.35255189  0.33243198     0.09700
C43         C  0.23111075  0.34680432  0.39422508    -0.53800
C44         C  0.22964969  0.32590146  0.37234053     0.10300
H45         H  0.29730072  0.34503992  0.41043259     0.14800
H46         H  0.25261156  0.30720068  0.33087910     0.00600
H47         H  0.25753347  0.39488636  0.34611160     0.15100
H48         H  0.21554609  0.35016349  0.41287767     0.14900
C49         C  0.24075620  0.11502701  0.17173159     0.86700
C50         C  0.26620200  0.13349824  0.16786766    -0.53500
C51         C  0.26738880  0.15419136  0.19004168     0.09600
C52         C  0.24310783  0.15513573  0.21381171     0.20600
C53         C  0.24122381  0.10580511  0.20784418    -0.54300
C54         C  0.24233974  0.12684848  0.22961926     0.09700
C55         C  0.21634339  0.13518540  0.16957858    -0.53800
C56         C  0.21783659  0.15598074  0.19167548     0.10300
H57         H  0.28187022  0.13048302  0.14925345     0.14800
H58         H  0.24412580  0.17219428  0.23170038     0.00600
H59         H  0.24053794  0.08459494  0.21541433     0.15100
H60         H  0.19991385  0.13421962  0.15176884     0.14900
C61         C  0.12543090  0.24759858  0.17583029     0.86700
C62         C  0.14302120  0.22170894  0.17166455    -0.53500
C63         C  0.16396044  0.21966649  0.19351308     0.09600
C64         C  0.16610495  0.24372697  0.21728855     0.20600
C65         C  0.11641432  0.24739596  0.21202821    -0.54300
C66         C  0.13777690  0.24551367  0.23349915     0.09700
C67         C  0.14650725  0.27104550  0.17337938    -0.53800
C68         C  0.16753090  0.26886883  0.19513960     0.10300
H69         H  0.13927939  0.20633938  0.15304346     0.14800
H70         H  0.18341831  0.24209409  0.23491001     0.00600
H71         H  0.09516291  0.24893860  0.21987324     0.15100
H72         H  0.14591048  0.28749620  0.15570709     0.14900
C73         C  0.37199481  0.23199966  0.17298087     0.86700
C74         C  0.35403830  0.25776675  0.16977744    -0.53500
C75         C  0.33292263  0.25884408  0.19161367     0.09600
C76         C  0.33099041  0.23410454  0.21435782     0.20600
C77         C  0.38073627  0.23135674  0.20928322    -0.54300
C78         C  0.35922829  0.23240561  0.23071691     0.09700
C79         C  0.35120462  0.20834784  0.16945367    -0.53800
C80         C  0.32997868  0.20960492  0.19116539     0.10300
H81         H  0.35773468  0.27378967  0.15193352     0.14800
H82         H  0.31355425  0.23504956  0.23193058     0.00600
H83         H  0.40197831  0.23030283  0.21721638     0.15100
H84         H  0.35211383  0.19252311  0.15099612     0.14900
C85         C  0.25586047  0.36351890  0.17490585     0.86700
C86         C  0.23019581  0.34521177  0.17218163    -0.53500
C87         C  0.22953323  0.32460325  0.19454492     0.09600
C88         C  0.25440457  0.32358480  0.21730872     0.20600
C89         C  0.25634066  0.37290220  0.21090886    -0.54300
C90         C  0.25561884  0.35195108  0.23285568     0.09700
C91         C  0.27997089  0.34315232  0.17180190    -0.53800
C92         C  0.27902629  0.32248715  0.19406861     0.10300
H93         H  0.21414802  0.34807300  0.15404954     0.14800
H94         H  0.25374910  0.30658542  0.23532632     0.00600
H95         H  0.25705852  0.39415179  0.21828468     0.15100
H96         H  0.29565382  0.34381267  0.15296593     0.14900
O97         O  0.03002957  0.22162090  0.06848536    -0.72700
O98         O  0.46913584  0.21445185  0.49797086    -0.73700
O99         O  0.02827969  0.22333026  0.49670082    -0.62300
O100        O  0.47150914  0.21471646  0.06524013    -0.70700
O101        O  0.47187591  0.25968252  0.07028519    -0.70300
O102        O  0.02801003  0.26842612  0.49974843    -0.61500
O103        O  0.46932892  0.25941684  0.49263736    -0.74100
O104        O  0.02991466  0.26668835  0.06445038    -0.72800
Cu105      Cu  0.00145209  0.21785078  0.03359152     1.04600
Cu106      Cu  0.00087914  0.26605916  0.02964811     1.04300
C107        C  0.03887919  0.24486433  0.07776069     0.93500
C108        C  0.46010748  0.23607461  0.48421461     0.92600
C109        C  0.03701591  0.24644227  0.48679177     0.84800
C110        C  0.46232836  0.23643600  0.07865116     0.91000
O111        O  0.22929239  0.46141109  0.07037276    -0.72700
O112        O  0.22061829  0.02094517  0.49999256    -0.73700
O113        O  0.23052695  0.46269058  0.49477307    -0.62300
O114        O  0.22468491  0.01683241  0.06311789    -0.70700
O115        O  0.26996181  0.01698174  0.06832715    -0.70300
O116        O  0.27591616  0.46257040  0.49836659    -0.61500
O117        O  0.26595119  0.02056662  0.49530113    -0.74100
O118        O  0.27468214  0.46148020  0.06668354    -0.72800
Cu119      Cu  0.22577474  0.48996040  0.03541925     1.04600
Cu120      Cu  0.27431220  0.49026827  0.03145449     1.04300
C121        C  0.25260469  0.45230122  0.07958678     0.93500
C122        C  0.24255339  0.02950340  0.48617813     0.92600
C123        C  0.25383858  0.45361401  0.48536577     0.84800
C124        C  0.24637483  0.02604828  0.07675435     0.91000
C125        C  0.27962275  0.39572070  0.13399168    -0.13100
C126        C  0.25578586  0.38738217  0.15086099     0.09000
C127        C  0.23148080  0.40236175  0.14589874    -0.13100
C128        C  0.23044253  0.42343315  0.12287109    -0.13100
C129        C  0.25394888  0.43075609  0.10497768     0.09000
C130        C  0.27865860  0.41704487  0.11129383    -0.13100
H131        H  0.29925870  0.38625597  0.13836831     0.13000
H132        H  0.21302859  0.39742716  0.15944992     0.13000
H133        H  0.21118191  0.43397546  0.11907545     0.13000
H134        H  0.29727845  0.42258206  0.09839972     0.13000
C135        C  0.41244685  0.25582367  0.14621728    -0.13100
C136        C  0.39646052  0.23205100  0.14943994     0.09000
C137        C  0.40400113  0.20905002  0.13076844    -0.12500
C138        C  0.42563033  0.21039113  0.10825686    -0.13100
C139        C  0.44036282  0.23467804  0.10374691     0.09000
C140        C  0.43376205  0.25728759  0.12329720    -0.13100
H141        H  0.40799244  0.27361620  0.16097295     0.13000
H142        H  0.39369032  0.18974895  0.13348522     0.13000
H143        H  0.43056669  0.19242287  0.09401660     0.13000
H144        H  0.44508094  0.27617218  0.12089525     0.13000
C145        C  0.31410870  0.28141695  0.19308310    -0.13100
C146        C  0.29833348  0.30029243  0.19391043    -0.14600
C147        C  0.09475914  0.27167459  0.13332107    -0.13100
C148        C  0.10132589  0.24843315  0.15207564     0.09000
C149        C  0.08514264  0.22491666  0.14808402    -0.13100
C150        C  0.06490211  0.22374944  0.12397411    -0.13100
C151        C  0.05958048  0.24644940  0.10406422     0.09000
C152        C  0.07414986  0.27064649  0.10960312    -0.13100
H153        H  0.10515485  0.29085135  0.13669112     0.13000
H154        H  0.08884486  0.20699789  0.16293576     0.13000
H155        H  0.05348845  0.20500365  0.12084999     0.13000
H156        H  0.06998313  0.28869951  0.09517072     0.13000
C157        C  0.20774267  0.30489717  0.19586582    -0.13100
C158        C  0.18955600  0.28832660  0.19622037    -0.14600
C159        C  0.21796446  0.08350732  0.12896519    -0.13100
C160        C  0.24096424  0.09098825  0.14788300     0.09000
C161        C  0.26504882  0.07530896  0.14470250    -0.13100
C162        C  0.26680275  0.05424000  0.12175546    -0.13100
C163        C  0.24418930  0.04760321  0.10206164     0.09000
C164        C  0.21958734  0.06208038  0.10642060    -0.13100
H165        H  0.19849076  0.09373279  0.13145615     0.13000
H166        H  0.28287589  0.07983122  0.15954963     0.13000
H167        H  0.28593158  0.04316828  0.11941198     0.13000
H168        H  0.20162931  0.05715149  0.09197847     0.13000
C169        C  0.19826718  0.17794070  0.19283907    -0.13100
C170        C  0.18260434  0.19691681  0.19358132    -0.14600
C171        C  0.30788303  0.19008652  0.19118839    -0.13100
C172        C  0.28944314  0.17373024  0.19072831    -0.14600
C173        C  0.25525353  0.35588833  0.29737077    -0.13100
C174        C  0.25550800  0.35572854  0.26784732    -0.14600
C175        C  0.23345519  0.40511654  0.41725610    -0.13100
C176        C  0.25724476  0.38904447  0.41368103     0.09000
C177        C  0.28066107  0.39630822  0.43196186    -0.13100
C178        C  0.27966323  0.41765104  0.45461211    -0.13100
C179        C  0.25530671  0.43234130  0.45966553     0.09000
C180        C  0.23233901  0.42617882  0.44030664    -0.13100
H181        H  0.21536687  0.40085864  0.40275041     0.13000
H182        H  0.30000231  0.38594063  0.42893001     0.13000
H183        H  0.29791234  0.42229965  0.46865541     0.13000
H184        H  0.21342523  0.43754285  0.44308381     0.13000
C185        C  0.36222963  0.23268708  0.29546347    -0.13100
C186        C  0.36236545  0.23242754  0.26588758    -0.14600
C187        C  0.40110688  0.20913747  0.43338845    -0.13100
C188        C  0.39554461  0.23116008  0.41217126     0.09000
C189        C  0.41296828  0.25403893  0.41357950    -0.13100
C190        C  0.43396426  0.25565706  0.43683374    -0.13100
C191        C  0.43865241  0.23407202  0.45869048     0.09000
C192        C  0.42238650  0.21059640  0.45624513    -0.13100
H193        H  0.38940965  0.19051432  0.43275695     0.13000
H194        H  0.40978544  0.27109288  0.39716882     0.13000
H195        H  0.44650467  0.27386420  0.43774980     0.13000
H196        H  0.44816706  0.20381288  0.94398850     0.13000
C197        C  0.31402265  0.28198306  0.36974134    -0.13100
C198        C  0.29841258  0.30103708  0.36996660    -0.14600
C199        C  0.13449862  0.24611518  0.26856658    -0.13100
C200        C  0.13461754  0.24679146  0.29807919    -0.14600
C201        C  0.08691130  0.22389491  0.42109326    -0.13100
C202        C  0.10144998  0.24804701  0.41444797     0.09000
C203        C  0.09220890  0.27239116  0.42913805    -0.13100
C204        C  0.07085921  0.27206027  0.45208160    -0.13100
C205        C  0.05800360  0.24746217  0.46057922     0.09000
C206        C  0.06582454  0.22350882  0.44424753    -0.13100
H207        H  0.09219595  0.20504842  0.40886052     0.13000
H208        H  0.10125024  0.29183567  0.42303294     0.13000
H209        H  0.05450243  0.27860610  0.94103740     0.13000
H210        H  0.05580108  0.20431670  0.44954772     0.13000
C211        C  0.18939440  0.28978058  0.37212700    -0.13100
C212        C  0.20761537  0.30636144  0.37222541    -0.14600
C213        C  0.24222311  0.12329306  0.26467886    -0.13100
C214        C  0.24191425  0.12338290  0.29422089    -0.14600
C215        C  0.26314383  0.07557735  0.41586784    -0.13100
C216        C  0.23928016  0.09125558  0.41115698     0.09000
C217        C  0.21557276  0.08419006  0.42914618    -0.13100
C218        C  0.21648318  0.06380329  0.45304623    -0.13100
C219        C  0.24100631  0.04983125  0.45946224     0.09000
C220        C  0.26413860  0.05544744  0.44005001    -0.13100
H221        H  0.28140543  0.07953424  0.40150519     0.13000
H222        H  0.19610211  0.09404875  0.42498840     0.13000
H223        H  0.19806309  0.05933570  0.46691261     0.13000
H224        H  0.28315428  0.04442544  0.44371531     0.13000
C225        C  0.18334059  0.19810611  0.36951408    -0.13100
C226        C  0.19889435  0.17909192  0.36801678    -0.14600
C227        C  0.28915819  0.17349447  0.36824234    -0.13100
C228        C  0.30728518  0.19019406  0.36829255    -0.14600
C229        C  0.25873403  0.11721506  0.89264733     0.86700
C230        C  0.23364857  0.13617110  0.89657906    -0.53500
C231        C  0.23287826  0.15690586  0.87436911     0.09600
C232        C  0.25713038  0.15736328  0.85054643     0.20600
C233        C  0.25796310  0.10801378  0.85655210    -0.54300
C234        C  0.25716487  0.12905661  0.83474473     0.09700
C235        C  0.28351458  0.13686877  0.89475371    -0.53800
C236        C  0.28243774  0.15767699  0.87268429     0.10300
H237        H  0.21789287  0.13338288  0.91513885     0.14800
H238        H  0.25641261  0.17445127  0.83265951     0.00600
H239        H  0.25794752  0.08679016  0.84901773     0.15100
H240        H  0.29985638  0.13571181  0.91265437     0.14900
C241        C  0.12876784  0.23501808  0.89059096     0.86700
C242        C  0.14649591  0.26099532  0.89255530    -0.53500
C243        C  0.16726170  0.26177039  0.87019033     0.09600
C244        C  0.16895339  0.23661552  0.84808550     0.20600
C245        C  0.11932970  0.23357849  0.85462558    -0.54300
C246        C  0.14037580  0.23440810  0.83259563     0.09700
C247        C  0.14984291  0.21162787  0.89426032    -0.53800
C248        C  0.17061820  0.21260512  0.87199197     0.10300
H249        H  0.14301073  0.27725287  0.91013892     0.14800
H250        H  0.18604910  0.23733222  0.83002969     0.00600
H251        H  0.09794260  0.23230315  0.84731796     0.15100
H252        H  0.14956859  0.19616950  0.91319119     0.14900
C253        C  0.37637802  0.24772722  0.88992345     0.86700
C254        C  0.35852520  0.22197781  0.89397191    -0.53500
C255        C  0.33733968  0.22044632  0.87237390     0.09600
C256        C  0.33524029  0.24476904  0.84900811     0.20600
C257        C  0.38500440  0.24777182  0.85356862    -0.54300
C258        C  0.36341582  0.24630024  0.83236357     0.09700
C259        C  0.35554520  0.27137215  0.89305926    -0.53800
C260        C  0.33424377  0.26965658  0.87159016     0.10300
H261        H  0.36227623  0.20634063  0.91228629     0.14800
H262        H  0.31772905  0.24349057  0.83162878     0.00600
H263        H  0.40620666  0.24887627  0.84543766     0.15100
H264        H  0.35648078  0.28752935  0.91108799     0.14900
C265        C  0.24549884  0.36439702  0.89121314     0.86700
C266        C  0.27064490  0.34555238  0.89506591    -0.53500
C267        C  0.27198626  0.32537335  0.87222062     0.09600
C268        C  0.24813377  0.32529872  0.84782475     0.20600
C269        C  0.24678604  0.37451002  0.85550770    -0.54300
C270        C  0.24805466  0.35402115  0.83301134     0.09700
C271        C  0.22087181  0.34451958  0.89213089    -0.53800
C272        C  0.22244588  0.32426666  0.86940919     0.10300
H273        H  0.28596360  0.34790408  0.91417636     0.14800
H274        H  0.24926415  0.30865146  0.82939388     0.00600
H275        H  0.24645175  0.39590783  0.84870689     0.15100
H276        H  0.20429674  0.34508508  0.90980649     0.14900
C277        C  0.25572808  0.11639524  0.67713139     0.86700
C278        C  0.28020369  0.13643181  0.67444119    -0.53500
C279        C  0.27915034  0.15730162  0.69639540     0.09600
C280        C  0.25414966  0.15671275  0.71904169     0.20600
C281        C  0.25560678  0.10729286  0.71331975    -0.54300
C282        C  0.25488239  0.12846172  0.73502320     0.09700
C283        C  0.23036798  0.13500948  0.67369018    -0.53800
C284        C  0.22963313  0.15585317  0.69568696     0.10300
H285        H  0.29635104  0.13550070  0.65622386     0.14800
H286        H  0.25345432  0.17388497  0.73679662     0.00600
H287        H  0.25624735  0.08610520  0.72097908     0.15100
H288        H  0.21459468  0.13217268  0.65520779     0.14900
C289        C  0.12791176  0.23645240  0.67495090     0.86700
C290        C  0.14876646  0.21279366  0.67160411    -0.53500
C291        C  0.16939248  0.21365668  0.69402854     0.09600
C292        C  0.16793424  0.23784712  0.71757760     0.20600
C293        C  0.11831171  0.23520993  0.71098588    -0.54300
C294        C  0.13937824  0.23584650  0.73303418     0.09700
C295        C  0.14587228  0.26222543  0.67289217    -0.53800
C296        C  0.16646948  0.26294053  0.69534757     0.10300
H297        H  0.14824601  0.19698451  0.65314207     0.14800
H298        H  0.18496648  0.23847640  0.73567840     0.00600
H299        H  0.09691093  0.23388929  0.71827758     0.15100
H300        H  0.14254357  0.27852532  0.65531079     0.14900
C301        C  0.37254077  0.24717430  0.67428806     0.86700
C302        C  0.35180786  0.27098524  0.67241722    -0.53500
C303        C  0.33134669  0.26942448  0.69502351     0.09600
C304        C  0.33294866  0.24454788  0.71756390     0.20600
C305        C  0.38251514  0.24722350  0.71017863    -0.54300
C306        C  0.36172063  0.24590391  0.73260319     0.09700
C307        C  0.35443182  0.22151991  0.67141689    -0.53800
C308        C  0.33400158  0.22018221  0.69416941     0.10300
H309        H  0.35212017  0.28733545  0.65464779     0.14800
H310        H  0.31608461  0.24343720  0.73590343     0.00600
H311        H  0.40399808  0.24825731  0.71711908     0.15100
H312        H  0.35754088  0.20579716  0.65304925     0.14900
C313        C  0.24466995  0.36574247  0.67535992     0.86700
C314        C  0.21967577  0.34628520  0.67441608    -0.53500
C315        C  0.22081076  0.32599553  0.69714078     0.09600
C316        C  0.24635677  0.32654212  0.71878061     0.20600
C317        C  0.24601113  0.37577793  0.71116701    -0.54300
C318        C  0.24682683  0.35515219  0.73362672     0.09700
C319        C  0.26948400  0.34640996  0.67168114    -0.53800
C320        C  0.27028676  0.32621390  0.69458285     0.10300
H321        H  0.20322700  0.34701670  0.65660753     0.14800
H322        H  0.24710961  0.30983063  0.73718138     0.00600
H323        H  0.24628784  0.39715601  0.71801585     0.15100
H324        H  0.28499358  0.34849368  0.65269715     0.14900
O325        O  0.03053828  0.22016101  0.56583825    -0.72700
O326        O  0.47256075  0.21992707  0.99579705    -0.73700
O327        O  0.03072216  0.21795800  0.99916152    -0.62300
O328        O  0.46912597  0.21917258  0.56746517    -0.70700
O329        O  0.46852242  0.26413835  0.56218663    -0.70300
O330        O  0.03000820  0.26299249  0.99477614    -0.61500
O331        O  0.47287176  0.26491479  0.00077790    -0.74100
O332        O  0.02994277  0.26522953  0.56960253    -0.72800
Cu333      Cu  0.00049486  0.21963361  0.53249179     1.04600
Cu334      Cu  0.99980898  0.26785783  0.53593689     1.04300
C335        C  0.03969256  0.24217726  0.57842210     0.93500
C336        C  0.46385685  0.24335516  0.98693509     0.92600
C337        C  0.03962263  0.23986953  0.98601683     0.84800
C338        C  0.45961884  0.24241281  0.57585557     0.91000
O339        O  0.22728022  0.46176775  0.56444811    -0.72700
O340        O  0.22988729  0.01729310  0.99381652    -0.73700
O341        O  0.22588236  0.46071724  0.00093842    -0.62300
O342        O  0.22538435  0.02101209  0.57002036    -0.70700
O343        O  0.27067298  0.02114050  0.56486640    -0.70300
O344        O  0.27127687  0.46120468  0.99720751    -0.61500
O345        O  0.27516663  0.01780613  0.99904670    -0.74100
O346        O  0.27266124  0.46201024  0.56807388    -0.72800
Cu347      Cu  0.22718003  0.49113906  0.53008920     1.04600
Cu348      Cu  0.27572457  0.49123161  0.53354267     1.04300
C349        C  0.24939683  0.45263302  0.57721208     0.93500
C350        C  0.25330089  0.02693077  0.98571305     0.92600
C351        C  0.24808340  0.45175107  0.98814126     0.84800
C352        C  0.24890084  0.03005774  0.57868467     0.91000
C353        C  0.26932573  0.40409360  0.64571045    -0.13100
C354        C  0.24501241  0.38902943  0.65038134     0.09000
C355        C  0.22182593  0.39629678  0.63164479    -0.13100
C356        C  0.22331156  0.41695920  0.60813179    -0.13100
C357        C  0.24793366  0.43107055  0.60262951     0.09000
C358        C  0.27090239  0.42453179  0.62183734    -0.13100
H359        H  0.28737273  0.39966271  0.66022392     0.13000
H360        H  0.20216610  0.38661591  0.63510514     0.13000
H361        H  0.20511040  0.42177546  0.59407806     0.13000
H362        H  0.29009710  0.43532580  0.61856005     0.13000
C363        C  0.40112950  0.26919047  0.62783668    -0.13100
C364        C  0.39604720  0.24724653  0.64939609     0.09000
C365        C  0.41327034  0.22425358  0.64731133    -0.12500
C366        C  0.43379532  0.22257285  0.62339791    -0.13100
C367        C  0.43816920  0.24419266  0.60147072     0.09000
C368        C  0.42190106  0.26763633  0.60427755    -0.13100
H369        H  0.38957065  0.28785461  0.62878022     0.13000
H370        H  0.41039496  0.20722548  0.66385144     0.13000
H371        H  0.44631699  0.20437143  0.62216110     0.13000
H372        H  0.42498736  0.28474988  0.58791756     0.13000
C373        C  0.30953829  0.28913922  0.69625244    -0.13100
C374        C  0.29163681  0.30602206  0.69572039    -0.14600
C375        C  0.08767096  0.26056044  0.64814361    -0.13100
C376        C  0.10415699  0.23702143  0.65052276     0.09000
C377        C  0.09805170  0.21487200  0.62979743    -0.13100
C378        C  0.07716148  0.21672669  0.60656525    -0.13100
C379        C  0.06166691  0.24065051  0.60331493     0.09000
C380        C  0.06699535  0.26254848  0.62447115    -0.13100
H381        H  0.09121164  0.27773540  0.66425061     0.13000
H382        H  0.10879781  0.19575164  0.63138888     0.13000
H383        H  0.07325593  0.19933010  0.59091726     0.13000
H384        H  0.05503079  0.28109823  0.62293726     0.13000
C385        C  0.20111974  0.30420278  0.69822966    -0.13100
C386        C  0.18526327  0.28542571  0.69761429    -0.14600
C387        C  0.23114423  0.07683706  0.64981314    -0.13100
C388        C  0.25522441  0.09253436  0.65295123     0.09000
C389        C  0.27781362  0.08575039  0.63290822    -0.13100
C390        C  0.27574377  0.06531829  0.60920178    -0.13100
C391        C  0.25112353  0.05096390  0.60479017     0.09000
C392        C  0.22895273  0.05663333  0.62572351    -0.13100
H393        H  0.21362009  0.08081743  0.66544935     0.13000
H394        H  0.29737825  0.09580731  0.63525167     0.13000
H395        H  0.29342499  0.06103213  0.59394712     0.13000
H396        H  0.20987684  0.04548135  0.62346379     0.13000
C397        C  0.20834251  0.17618091  0.69574343    -0.13100
C398        C  0.19071533  0.19337672  0.69524657    -0.14600
C399        C  0.31490086  0.19783311  0.69573257    -0.13100
C400        C  0.29881487  0.17920739  0.69648274    -0.14600
C401        C  0.24838589  0.35859182  0.79811389    -0.13100
C402        C  0.24795366  0.35918256  0.76858054    -0.14600
C403        C  0.22155450  0.39516887  0.93368897    -0.13100
C404        C  0.24523336  0.38776654  0.91587615     0.09000
C405        C  0.26934514  0.40302709  0.92078029    -0.13100
C406        C  0.27034581  0.42368707  0.94428723    -0.13100
C407        C  0.24696189  0.43024581  0.96280813     0.09000
C408        C  0.22247797  0.41608869  0.95686072    -0.13100
H409        H  0.20205494  0.38541173  0.92973912     0.13000
H410        H  0.28769586  0.39858638  0.90675433     0.13000
H411        H  0.28942186  0.43456644  0.94787316     0.13000
H412        H  0.20396368  0.42102217  0.97034658     0.13000
C413        C  0.36639218  0.24615656  0.79717450    -0.13100
C414        C  0.36593032  0.24601522  0.76760738    -0.14600
C415        C  0.41660395  0.22428704  0.91715622    -0.13100
C416        C  0.40080232  0.24809418  0.91330721     0.09000
C417        C  0.40813786  0.27129074  0.93171120    -0.13100
C418        C  0.42904169  0.26992372  0.95508160    -0.13100
C419        C  0.44314339  0.24542841  0.96062597     0.09000
C420        C  0.43713642  0.22279145  0.94091083    -0.13100
H421        H  0.41238218  0.20638994  0.90248691     0.13000
H422        H  0.39808185  0.29064826  0.92832145     0.13000
H423        H  0.43375508  0.28795320  0.96930724     0.13000
H424        H  0.42574811  0.19347980  0.47250743     0.13000
C425        C  0.31213513  0.28912646  0.87125751    -0.13100
C426        C  0.29378113  0.30556986  0.87153163    -0.14600
C427        C  0.13577966  0.23470442  0.76806998    -0.13100
C428        C  0.13634342  0.23419836  0.79760330    -0.14600
C429        C  0.09851006  0.21296630  0.93509912    -0.13100
C430        C  0.10475528  0.23529268  0.91466823     0.09000
C431        C  0.08784825  0.25854984  0.91656779    -0.13100
C432        C  0.06671356  0.26019313  0.93972279    -0.13100
C433        C  0.06140357  0.23825162  0.96085321     0.09000
C434        C  0.07718138  0.21448193  0.95785251    -0.13100
H435        H  0.10953670  0.19396894  0.93365407     0.13000
H436        H  0.09142087  0.27576971  0.90052646     0.13000
H437        H  0.06475607  0.29100396  0.46355687     0.13000
H438        H  0.07327542  0.19704759  0.97344799     0.13000
C439        C  0.18641998  0.28403607  0.86830098    -0.13100
C440        C  0.20268335  0.30250559  0.86792040    -0.14600
C441        C  0.25541287  0.12510479  0.77014657    -0.13100
C442        C  0.25616345  0.12537563  0.79969604    -0.14600
C443        C  0.28129105  0.08536623  0.93513049    -0.13100
C444        C  0.25827721  0.09315136  0.91641166     0.09000
C445        C  0.23412278  0.07757242  0.91942279    -0.13100
C446        C  0.23244278  0.05607953  0.94183111    -0.13100
C447        C  0.25516365  0.04905492  0.96116941     0.09000
C448        C  0.27970828  0.06363615  0.95717819    -0.13100
H449        H  0.30082086  0.09547631  0.93278662     0.13000
H450        H  0.21627542  0.08238771  0.90473830     0.13000
H451        H  0.21333622  0.04495392  0.94398122     0.13000
H452        H  0.29771506  0.05846020  0.97141169     0.13000
C453        C  0.19283082  0.19323719  0.87225583    -0.13100
C454        C  0.21110650  0.17672565  0.87330979    -0.14600
C455        C  0.30233591  0.17933266  0.87200160    -0.13100
C456        C  0.31840606  0.19796067  0.87195937    -0.14600
C457        C  0.25549704  0.61679814  0.38871117     0.86700
C458        C  0.23011178  0.63552974  0.39163595    -0.53500
C459        C  0.22963181  0.65612823  0.36924014     0.09600
C460        C  0.25445308  0.65673538  0.34627697     0.20600
C461        C  0.25568634  0.60736832  0.35269857    -0.54300
C462        C  0.25521677  0.62834420  0.33072801     0.09700
C463        C  0.27988997  0.63679034  0.39156538    -0.53800
C464        C  0.27918746  0.65743520  0.36930209     0.10300
H465        H  0.21412416  0.63301053  0.40995267     0.14800
H466        H  0.25400645  0.67374040  0.32826008     0.00600
H467        H  0.25618733  0.58610897  0.34534510     0.15100
H468        H  0.29560125  0.63587887  0.41032936     0.14900
C469        C  0.12546075  0.73295306  0.38965325     0.86700
C470        C  0.14294472  0.75893988  0.39346857    -0.53500
C471        C  0.16367370  0.76104451  0.37120111     0.09600
C472        C  0.16557998  0.73709205  0.34728101     0.20600
C473        C  0.11599924  0.73322119  0.35359420    -0.54300
C474        C  0.13704504  0.73536409  0.33165224     0.09700
C475        C  0.14668187  0.70952815  0.39142988    -0.53800
C476        C  0.16745001  0.71188832  0.36927098     0.10300
H477        H  0.13923099  0.77429390  0.41212980     0.14800
H478        H  0.18265419  0.73886552  0.32929853     0.00600
H479        H  0.09464605  0.73182499  0.34618617     0.15100
H480        H  0.14635246  0.69280892  0.40868996     0.14900
C481        C  0.37188073  0.74787927  0.39185344     0.86700
C482        C  0.35403740  0.72198310  0.39484765    -0.53500
C483        C  0.33330479  0.72074270  0.37255609     0.09600
C484        C  0.33157289  0.74543099  0.34974127     0.20600
C485        C  0.38120955  0.74845032  0.35578070    -0.54300
C486        C  0.36006072  0.74718468  0.33397200     0.09700
C487        C  0.35091049  0.77135007  0.39498099    -0.53800
C488        C  0.33006002  0.76996660  0.37287064     0.10300
H489        H  0.35740476  0.70606556  0.41290486     0.14800
H490        H  0.31442972  0.74436965  0.33182334     0.00600
H491        H  0.40257216  0.74957210  0.34826283     0.15100
H492        H  0.35154278  0.78713119  0.41354731     0.14900
C493        C  0.24117085  0.86469417  0.39270527     0.86700
C494        C  0.26649749  0.84600628  0.39647969    -0.53500
C495        C  0.26771205  0.82560577  0.37387850     0.09600
C496        C  0.24360177  0.82516996  0.34988720     0.20600
C497        C  0.24205882  0.87443067  0.35686152    -0.54300
C498        C  0.24325623  0.85373049  0.33467701     0.09700
C499        C  0.21670705  0.84468040  0.39435651    -0.53800
C500        C  0.21815719  0.82420342  0.37189717     0.10300
H501        H  0.28199109  0.84857387  0.41534323     0.14800
H502        H  0.24464133  0.80835731  0.33166623     0.00600
H503        H  0.24171013  0.89575907  0.34974859     0.15100
H504        H  0.20035595  0.84545708  0.41236084     0.14900
C505        C  0.25608854  0.61785248  0.17314007     0.86700
C506        C  0.28059490  0.63779692  0.17038804    -0.53500
C507        C  0.27989582  0.65835413  0.19281270     0.09600
C508        C  0.25508176  0.65754225  0.21583185     0.20600
C509        C  0.25620598  0.60824480  0.20906792    -0.54300
C510        C  0.25574464  0.62905091  0.23118047     0.09700
C511        C  0.23076463  0.63661891  0.17033583    -0.53800
C512        C  0.23029139  0.65708534  0.19286514     0.10300
H513        H  0.29644404  0.63687522  0.15176289     0.14800
H514        H  0.25460451  0.67442275  0.23399406     0.00600
H515        H  0.25656012  0.58693958  0.21627839     0.15100
H516        H  0.21472198  0.63407220  0.15213225     0.14900
C517        C  0.12728990  0.73570610  0.17375512     0.86700
C518        C  0.14796034  0.71183864  0.17146415    -0.53500
C519        C  0.16827289  0.71294975  0.19427511     0.09600
C520        C  0.16658200  0.73748428  0.21730424     0.20600
C521        C  0.11706080  0.73522343  0.20955022    -0.54300
C522        C  0.13771988  0.73609782  0.23210396     0.09700
C523        C  0.14554845  0.76128168  0.17147403    -0.53800
C524        C  0.16576345  0.76216960  0.19442959     0.10300
H525        H  0.14779911  0.69597502  0.15307066     0.14800
H526        H  0.18332445  0.73828928  0.23577746     0.00600
H527        H  0.09552073  0.73433287  0.21633133     0.15100
H528        H  0.14268810  0.77730379  0.15341683     0.14900
C529        C  0.37337640  0.74953272  0.17665331     0.86700
C530        C  0.35228141  0.77302818  0.17473781    -0.53500
C531        C  0.33117545  0.77047927  0.19637776     0.09600
C532        C  0.33256171  0.74504010  0.21799554     0.20600
C533        C  0.38223905  0.74887685  0.21291022    -0.54300
C534        C  0.36082391  0.74659204  0.23430775     0.09700
C535        C  0.35588244  0.72362142  0.17201714    -0.53800
C536        C  0.33477780  0.72131862  0.19375690     0.10300
H537        H  0.35298463  0.78997739  0.15783763     0.14800
H538        H  0.31519323  0.74316932  0.23555748     0.00600
H539        H  0.40345322  0.75033630  0.22085245     0.15100
H540        H  0.35987329  0.70845777  0.15321200     0.14900
C541        C  0.24336767  0.86564901  0.17709400     0.86700
C542        C  0.21899143  0.84555026  0.17501227    -0.53500
C543        C  0.22007810  0.82515516  0.19755592     0.09600
C544        C  0.24505126  0.82617116  0.22011473     0.20600
C545        C  0.24356711  0.87546619  0.21299045    -0.54300
C546        C  0.24436192  0.85469051  0.23525040     0.09700
C547        C  0.26877047  0.84699760  0.17405654    -0.53800
C548        C  0.26955916  0.82664367  0.19673382     0.10300
H549        H  0.20303022  0.84601277  0.15657160     0.14800
H550        H  0.24577147  0.80933639  0.23835292     0.00600
H551        H  0.24302885  0.89679249  0.22004826     0.15100
H552        H  0.28456487  0.84947188  0.15548358     0.14900
O553        O  0.03155585  0.71901693  0.06224163    -0.72700
O554        O  0.47105049  0.72413415  0.49536544    -0.73700
O555        O  0.02787046  0.71434728  0.49952696    -0.62300
O556        O  0.47054841  0.72288482  0.07173483    -0.70700
O557        O  0.47100463  0.76786764  0.06653824    -0.70300
O558        O  0.02909577  0.75945340  0.49626051    -0.61500
O559        O  0.47122476  0.76921561  0.49869144    -0.74100
O560        O  0.03016973  0.76394878  0.06769069    -0.72800
Cu561      Cu  0.00134872  0.71899602  0.02886602     1.04600
Cu562      Cu  0.99996450  0.76707212  0.03446640     1.04300
C563        C  0.04026706  0.74086453  0.07571905     0.93500
C564        C  0.46175407  0.74722771  0.48622399     0.92600
C565        C  0.03745212  0.73611116  0.48663786     0.84800
C566        C  0.46182425  0.74634245  0.08040699     0.91000
O567        O  0.22559115  0.95894271  0.06288321    -0.72700
O568        O  0.23008023  0.52029793  0.49584389    -0.73700
O569        O  0.22075709  0.96303031  0.50017758    -0.62300
O570        O  0.22890584  0.51913687  0.06971185    -0.70700
O571        O  0.27428855  0.51946975  0.06589246    -0.70300
O572        O  0.26612103  0.96327297  0.49600773    -0.61500
O573        O  0.27549315  0.52049553  0.49878961    -0.74100
O574        O  0.27091167  0.95939332  0.06748309    -0.72800
Cu575      Cu  0.22608675  0.98809397  0.02808034     1.04600
Cu576      Cu  0.27452608  0.98847275  0.03324547     1.04300
C577        C  0.24755722  0.95023641  0.07647867     0.93500
C578        C  0.25323136  0.52952688  0.48621065     0.92600
C579        C  0.24283241  0.95392039  0.48717351     0.84800
C580        C  0.25215275  0.52859923  0.07865072     0.91000
C581        C  0.26771996  0.90380910  0.14678282    -0.13100
C582        C  0.24341274  0.88897223  0.15225400     0.09000
C583        C  0.21987946  0.89627932  0.13415025    -0.13100
C584        C  0.22122136  0.91624231  0.10977740    -0.13100
C585        C  0.24599064  0.92964111  0.10295835     0.09000
C586        C  0.26913476  0.92354317  0.12211148    -0.13100
H587        H  0.28594942  0.89959471  0.16107020     0.13000
H588        H  0.20017039  0.88704785  0.13869395     0.13000
H589        H  0.20282184  0.92100850  0.09604794     0.13000
H590        H  0.28839113  0.93402134  0.11804779     0.13000
C591        C  0.40280125  0.77272598  0.13176893    -0.13100
C592        C  0.39768409  0.75056123  0.15300051     0.09000
C593        C  0.41557108  0.72805985  0.15164064    -0.12500
C594        C  0.43658432  0.72682714  0.12837297    -0.13100
C595        C  0.44074456  0.74841463  0.10635967     0.09000
C596        C  0.42410690  0.77162489  0.10882808    -0.13100
H597        H  0.39069046  0.79103176  0.13226960     0.13000
H598        H  0.41269757  0.71094123  0.16805198     0.13000
H599        H  0.44944673  0.70885614  0.12744424     0.13000
H600        H  0.42708476  0.78871844  0.09240119     0.13000
C601        C  0.30919615  0.78997987  0.19791615    -0.13100
C602        C  0.29113041  0.80668966  0.19781382    -0.14600
C603        C  0.08766223  0.75963216  0.14572598    -0.13100
C604        C  0.10394281  0.73604187  0.14880731     0.09000
C605        C  0.09792582  0.71362620  0.12842517    -0.13100
C606        C  0.07727566  0.71529742  0.10482517    -0.13100
C607        C  0.06199632  0.73928704  0.10090974     0.09000
C608        C  0.06725426  0.76141204  0.12176044    -0.13100
H609        H  0.09113703  0.77700216  0.16154959     0.13000
H610        H  0.10853681  0.69448426  0.13058285     0.13000
H611        H  0.07337609  0.69772200  0.08946394     0.13000
H612        H  0.05545424  0.78002873  0.11974494     0.13000
C613        C  0.20068097  0.80312998  0.19788632    -0.13100
C614        C  0.18474578  0.78445796  0.19676757    -0.14600
C615        C  0.23115717  0.57950593  0.14389266    -0.13100
C616        C  0.25569319  0.59406902  0.14903148     0.09000
C617        C  0.27950068  0.58523972  0.13251025    -0.13100
C618        C  0.27836052  0.56380884  0.11003317    -0.13100
C619        C  0.25348232  0.55045032  0.10359710     0.09000
C620        C  0.22994666  0.55830186  0.12107815    -0.13100
H621        H  0.21269378  0.58481508  0.15721268     0.13000
H622        H  0.29927619  0.59437424  0.13705491     0.13000
H623        H  0.29700851  0.55785360  0.09747859     0.13000
H624        H  0.21055159  0.54803776  0.11717439     0.13000
C625        C  0.20852125  0.67685510  0.19449102    -0.13100
C626        C  0.19025308  0.69337087  0.19513393    -0.14600
C627        C  0.31593349  0.69868635  0.19356968    -0.13100
C628        C  0.29981504  0.68005865  0.19334023    -0.14600
C629        C  0.24396773  0.85800402  0.29976082    -0.13100
C630        C  0.24429768  0.85853280  0.27023845    -0.14600
C631        C  0.21651204  0.89712039  0.43265606    -0.13100
C632        C  0.24073532  0.88844073  0.41681736     0.09000
C633        C  0.26500237  0.90322651  0.42248682    -0.13100
C634        C  0.26559922  0.92449205  0.44516265    -0.13100
C635        C  0.24171023  0.93219521  0.46206975     0.09000
C636        C  0.21704328  0.91866555  0.45507539    -0.13100
H637        H  0.19692236  0.88778016  0.42763753     0.13000
H638        H  0.28376468  0.89803307  0.40968409     0.13000
H639        H  0.28485748  0.93487014  0.44947605     0.13000
H640        H  0.19815839  0.92453275  0.46717732     0.13000
C641        C  0.36378250  0.74690747  0.29894212    -0.13100
C642        C  0.36400365  0.74660062  0.26940781    -0.14600
C643        C  0.41103880  0.72461462  0.42163807    -0.13100
C644        C  0.39596244  0.74856173  0.41570400     0.09000
C645        C  0.40453093  0.77278121  0.43124892    -0.13100
C646        C  0.42611535  0.77252203  0.45383168    -0.13100
C647        C  0.43982291  0.74813929  0.46119955     0.09000
C648        C  0.43230659  0.72428698  0.44447586    -0.13100
H649        H  0.40610604  0.70588756  0.40894786     0.13000
H650        H  0.39498174  0.79212877  0.42590349     0.13000
H651        H  0.43188377  0.79137879  0.46574384     0.13000
H652        H  0.43027163  0.69503496  0.97147749     0.13000
C653        C  0.30792532  0.78941392  0.37248960    -0.13100
C654        C  0.28959120  0.80588336  0.37298895    -0.14600
C655        C  0.13336677  0.73589899  0.26705853    -0.13100
C656        C  0.13325867  0.73570689  0.29661230    -0.14600
C657        C  0.09684458  0.71025730  0.43561311    -0.13100
C658        C  0.10153049  0.73217493  0.41389749     0.09000
C659        C  0.08349731  0.75458958  0.41522161    -0.13100
C660        C  0.06257673  0.75583569  0.43864328    -0.13100
C661        C  0.05865227  0.73433011  0.46081649     0.09000
C662        C  0.07562742  0.71134544  0.45864777    -0.13100
H663        H  0.10918670  0.69208419  0.43534575     0.13000
H664        H  0.08610334  0.77157271  0.39854013     0.13000
H665        H  0.07364103  0.78903654  0.97374765     0.13000
H666        H  0.07292212  0.69438387  0.47534363     0.13000
C667        C  0.18246122  0.78367034  0.37067984    -0.13100
C668        C  0.19848301  0.80234972  0.37077651    -0.14600
C669        C  0.25560376  0.62499934  0.26615622    -0.13100
C670        C  0.25542588  0.62468715  0.29569331    -0.14600
C671        C  0.27977491  0.58399283  0.42833506    -0.13100
C672        C  0.25550513  0.59309557  0.41303282     0.09000
C673        C  0.23091776  0.57920664  0.42012730    -0.13100
C674        C  0.23016595  0.55866290  0.44386557    -0.13100
C675        C  0.25416731  0.55078010  0.46040130     0.09000
C676        C  0.27906407  0.56327102  0.45184257    -0.13100
H677        H  0.29954227  0.59252082  0.42214641     0.13000
H678        H  0.21205459  0.58456062  0.40771293     0.13000
H679        H  0.21071894  0.54896490  0.44927199     0.13000
H680        H  0.29805320  0.55716852  0.46348234     0.13000
C681        C  0.18969539  0.69259765  0.36778990    -0.13100
C682        C  0.20797327  0.67606649  0.36798857    -0.14600
C683        C  0.29875919  0.67935899  0.36950510    -0.13100
C684        C  0.31463344  0.69811144  0.37068281    -0.14600
C685        C  0.24274426  0.61652183  0.89154494     0.86700
C686        C  0.21815887  0.63644128  0.89379725    -0.53500
C687        C  0.21930585  0.65727733  0.87174421     0.09600
C688        C  0.24465756  0.65671178  0.84945657     0.20600
C689        C  0.24340443  0.60733304  0.85544712    -0.54300
C690        C  0.24439022  0.62837836  0.83362782     0.09700
C691        C  0.26802292  0.63522403  0.89532665    -0.53800
C692        C  0.26902967  0.65593686  0.87310880     0.10300
H693        H  0.20184539  0.63533307  0.91180310     0.14800
H694        H  0.24553936  0.67378297  0.83156073     0.00600
H695        H  0.24340428  0.58610685  0.84792104     0.15100
H696        H  0.28383968  0.63221962  0.91372078     0.14900
C697        C  0.12658474  0.74956913  0.88883161     0.86700
C698        C  0.14841346  0.77232784  0.89138373    -0.53500
C699        C  0.16946903  0.76950543  0.86972202     0.09600
C700        C  0.16732150  0.74453493  0.84744923     0.20600
C701        C  0.11778602  0.74986398  0.85255853    -0.54300
C702        C  0.13913553  0.74724401  0.83115225     0.09700
C703        C  0.14326509  0.72299402  0.89281554    -0.53800
C704        C  0.16439001  0.72044813  0.87107342     0.10300
H705        H  0.14815744  0.78903922  0.90863326     0.14800
H706        H  0.18464165  0.74245187  0.82985396     0.00600
H707        H  0.09662172  0.75195780  0.84461151     0.15100
H708        H  0.13881132  0.70766874  0.91128811     0.14900
C709        C  0.37349946  0.73369785  0.89028500     0.86700
C710        C  0.35323580  0.70950381  0.89283814    -0.53500
C711        C  0.33236383  0.71057735  0.87069218     0.09600
C712        C  0.33327877  0.73538498  0.84791739     0.20600
C713        C  0.38298138  0.73382637  0.85418605    -0.54300
C714        C  0.36184973  0.73467712  0.83223030     0.09700
C715        C  0.35485094  0.75896148  0.89347972    -0.53800
C716        C  0.33423146  0.75985675  0.87106506     0.10300
H717        H  0.35402186  0.69360253  0.91123289     0.14800
H718        H  0.31615978  0.73621258  0.82994608     0.00600
H719        H  0.40439583  0.73364290  0.84678131     0.15100
H720        H  0.35789611  0.77494373  0.91152542     0.14900
C721        C  0.25785614  0.86482216  0.88516379     0.86700
C722        C  0.28250508  0.84506612  0.88747315    -0.53500
C723        C  0.28115810  0.82389419  0.86599240     0.09600
C724        C  0.25575102  0.82399423  0.84405385     0.20600
C725        C  0.25674738  0.87348429  0.84886582    -0.54300
C726        C  0.25569194  0.85204111  0.82758548     0.09700
C727        C  0.23275849  0.84596414  0.88982582    -0.53800
C728        C  0.23174153  0.82492681  0.86811088     0.10300
H729        H  0.29869243  0.84626750  0.90560227     0.14800
H730        H  0.25482579  0.80659558  0.82663411     0.00600
H731        H  0.25662439  0.89458492  0.84083818     0.15100
H732        H  0.21727540  0.84884744  0.90868098     0.14900
C733        C  0.24745563  0.61604152  0.67594834     0.86700
C734        C  0.27318123  0.63417076  0.67225656    -0.53500
C735        C  0.27457070  0.65481802  0.69451665     0.09600
C736        C  0.25026861  0.65597246  0.71827855     0.20600
C737        C  0.24769684  0.60667233  0.71206004    -0.54300
C738        C  0.24900385  0.62766569  0.73398069     0.09700
C739        C  0.22341716  0.63656558  0.67386391    -0.53800
C740        C  0.22507691  0.65713413  0.69612395     0.10300
H741        H  0.28867913  0.63120510  0.65343356     0.14800
H742        H  0.25138504  0.67299039  0.73621625     0.00600
H743        H  0.24635970  0.58546976  0.71951162     0.15100
H744        H  0.20696479  0.63595576  0.65606656     0.14900
C745        C  0.12723594  0.74035135  0.67406843     0.86700
C746        C  0.14636876  0.71523051  0.67384327    -0.53500
C747        C  0.16730527  0.71691500  0.69570823     0.09600
C748        C  0.16778995  0.74321411  0.71572092     0.20600
C749        C  0.11802909  0.74339478  0.71000101    -0.54300
C750        C  0.13933569  0.74476748  0.73158426     0.09700
C751        C  0.14692233  0.76441566  0.66795766    -0.53800
C752        C  0.16784134  0.76586190  0.68994019     0.10300
H753        H  0.14482300  0.69813148  0.65717361     0.14800
H754        H  0.18508899  0.74442130  0.73341057     0.00600
H755        H  0.09667445  0.74405023  0.71761812     0.15100
H756        H  0.14466720  0.77888107  0.64797798     0.14900
C757        C  0.37546611  0.73717199  0.67477437     0.86700
C758        C  0.35604701  0.76174003  0.67057177    -0.53500
C759        C  0.33480212  0.76211720  0.69222005     0.09600
C760        C  0.33425271  0.73785685  0.71589144     0.20600
C761        C  0.38411802  0.73782535  0.71107238    -0.54300
C762        C  0.36251714  0.73801241  0.73240757     0.09700
C763        C  0.35608008  0.71230836  0.67193147    -0.53800
C764        C  0.33476651  0.71279516  0.69355285     0.10300
H765        H  0.35864896  0.77735315  0.65194486     0.14800
H766        H  0.31671747  0.73816278  0.73335144     0.00600
H767        H  0.40536382  0.73770972  0.71908701     0.15100
H768        H  0.35804164  0.69619214  0.65392843     0.14900
C769        C  0.25372879  0.86327559  0.67015416     0.86700
C770        C  0.22864492  0.84447596  0.66594943    -0.53500
C771        C  0.22775987  0.82363047  0.68790324     0.09600
C772        C  0.25191240  0.82286413  0.71182157     0.20600
C773        C  0.25296669  0.87223705  0.70631156    -0.54300
C774        C  0.25216999  0.85105850  0.72790303     0.09700
C775        C  0.27846480  0.84353443  0.66782739    -0.53800
C776        C  0.27727727  0.82258724  0.68974162     0.10300
H777        H  0.21307050  0.84729401  0.64721639     0.14800
H778        H  0.25110842  0.80565528  0.72953674     0.00600
H779        H  0.25344353  0.89340188  0.71405940     0.15100
H780        H  0.29494879  0.84492890  0.65007057     0.14900
O781        O  0.02938196  0.71751522  0.56846560    -0.72700
O782        O  0.46930509  0.71782225  0.00229838    -0.73700
O783        O  0.02895213  0.72407011  0.99300533    -0.62300
O784        O  0.47249373  0.72015834  0.56461009    -0.70700
O785        O  0.47252709  0.76520985  0.56840710    -0.70300
O786        O  0.02813219  0.76904884  0.99819036    -0.61500
O787        O  0.47009227  0.76276087  0.99690878    -0.74100
O788        O  0.03041668  0.76265618  0.56602772    -0.72800
Cu789      Cu  0.99964763  0.71527115  0.53551733     1.04600
Cu790      Cu  0.00080344  0.76350180  0.53170439     1.04300
C791        C  0.03917813  0.74022636  0.57807796     0.93500
C792        C  0.46049992  0.73953806  0.98855775     0.92600
C793        C  0.03740966  0.74759513  0.98423587     0.84800
C794        C  0.46358223  0.74203130  0.57789528     0.91000
O795        O  0.22534087  0.96323191  0.56953495    -0.72700
O796        O  0.22530211  0.51864067  0.00023144    -0.73700
O797        O  0.23044920  0.95966340  0.99311062    -0.62300
O798        O  0.22711083  0.51980677  0.56553663    -0.70700
O799        O  0.27252213  0.51976569  0.56861194    -0.70300
O800        O  0.27576518  0.95988915  0.99761181    -0.61500
O801        O  0.27067946  0.51887305  0.99634642    -0.74100
O802        O  0.27069019  0.96333019  0.56497174    -0.72800
Cu803      Cu  0.22140486  0.99212419  0.53509702     1.04600
Cu804      Cu  0.26988801  0.99214798  0.53018615     1.04300
C805        C  0.24878881  0.95395286  0.57800544     0.93500
C806        C  0.24728091  0.52784696  0.98716124     0.92600
C807        C  0.25394134  0.95097483  0.98388803     0.84800
C808        C  0.24929841  0.52880787  0.57830038     0.91000
C809        C  0.27678634  0.89598532  0.62920265    -0.13100
C810        C  0.25337799  0.88748867  0.64673782     0.09000
C811        C  0.22897495  0.90257434  0.64302470    -0.13100
C812        C  0.22745213  0.92416825  0.62081452    -0.13100
C813        C  0.25058139  0.93186618  0.60252891     0.09000
C814        C  0.27536933  0.91787288  0.60738618    -0.13100
H815        H  0.29647057  0.88627517  0.63237071     0.13000
H816        H  0.21081360  0.89728874  0.65695355     0.13000
H817        H  0.20813476  0.93482562  0.61797461     0.13000
H818        H  0.29366930  0.92361001  0.59399828     0.13000
C819        C  0.41345110  0.76249127  0.64469419    -0.13100
C820        C  0.39987266  0.73772202  0.65122980     0.09000
C821        C  0.40965812  0.71397871  0.63571730    -0.12500
C822        C  0.43061539  0.71537316  0.61238706    -0.13100
C823        C  0.44260366  0.74045792  0.60413417     0.09000
C824        C  0.43419693  0.76393892  0.62104585    -0.13100
H825        H  0.40751643  0.78098813  0.65728646     0.13000
H826        H  0.40144954  0.69412142  0.64149020     0.13000
H827        H  0.43716752  0.69676155  0.60048262     0.13000
H828        H  0.44350381  0.78350795  0.61585808     0.13000
C829        C  0.31439080  0.78332690  0.69203432    -0.13100
C830        C  0.29757199  0.80129660  0.69110535    -0.14600
C831        C  0.08913717  0.76395323  0.64287195    -0.13100
C832        C  0.10326604  0.73967384  0.65023890     0.09000
C833        C  0.09440487  0.71534457  0.63534200    -0.13100
C834        C  0.07356160  0.71567851  0.61206617    -0.13100
C835        C  0.06075678  0.74020936  0.60330317     0.09000
C836        C  0.06842281  0.76432111  0.61925775    -0.13100
H837        H  0.09458530  0.78285630  0.65489362     0.13000
H838        H  0.10299556  0.69579930  0.64166327     0.13000
H839        H  0.06760146  0.69660964  0.60075723     0.13000
H840        H  0.05839630  0.78342982  0.61356027     0.13000
C841        C  0.20628865  0.80361738  0.68803910    -0.13100
C842        C  0.18859873  0.78656717  0.68860278    -0.14600
C843        C  0.22315233  0.58525047  0.63363531    -0.13100
C844        C  0.24683957  0.59228800  0.65163532     0.09000
C845        C  0.27067822  0.57654560  0.64683684    -0.13100
C846        C  0.27149357  0.55598511  0.62311121    -0.13100
C847        C  0.24818892  0.54994632  0.60423400     0.09000
C848        C  0.22387737  0.56442711  0.61025537    -0.13100
H849        H  0.20375751  0.59531255  0.63752207     0.13000
H850        H  0.28901097  0.58062743  0.66096733     0.13000
H851        H  0.29043483  0.54482246  0.61953781     0.13000
H852        H  0.20540499  0.55990882  0.59656442     0.13000
C853        C  0.20512157  0.67859143  0.69782664    -0.13100
C854        C  0.18809123  0.69629384  0.69790925    -0.14600
C855        C  0.31392948  0.69196193  0.69431410    -0.13100
C856        C  0.29626126  0.67477685  0.69453835    -0.14600
C857        C  0.25405073  0.85498494  0.79248123    -0.13100
C858        C  0.25283583  0.85455400  0.76296987    -0.14600
C859        C  0.23345702  0.90319919  0.91505960    -0.13100
C860        C  0.25800308  0.88893680  0.90891760     0.09000
C861        C  0.28191140  0.89748240  0.92546398    -0.13100
C862        C  0.28072119  0.91791725  0.94934710    -0.13100
C863        C  0.25568811  0.93049420  0.95720676     0.09000
C864        C  0.23219268  0.92332662  0.93924494    -0.13100
H865        H  0.21489816  0.89814242  0.90183106     0.13000
H866        H  0.30172254  0.88868552  0.92015274     0.13000
H867        H  0.29938007  0.92355254  0.96203176     0.13000
H868        H  0.21269015  0.93313614  0.94403101     0.13000
C869        C  0.36555100  0.73599888  0.79714495    -0.13100
C870        C  0.36562553  0.73719788  0.76758978    -0.14600
C871        C  0.40477421  0.71122134  0.93350784    -0.13100
C872        C  0.39733541  0.73413651  0.91465472     0.09000
C873        C  0.41248845  0.75833212  0.91895554    -0.13100
C874        C  0.43277440  0.76022872  0.94307602    -0.13100
C875        C  0.43919351  0.73765301  0.96277012     0.09000
C876        C  0.42536456  0.71300204  0.95722652    -0.13100
H877        H  0.39516094  0.69164428  0.93004788     0.13000
H878        H  0.40810308  0.77611821  0.90414830     0.13000
H879        H  0.44347847  0.77938347  0.94623074     0.13000
H880        H  0.44289108  0.70525037  0.44899891     0.13000
C881        C  0.31561350  0.78246498  0.86866529    -0.13100
C882        C  0.30019653  0.80154443  0.86686407    -0.14600
C883        C  0.13584970  0.74647564  0.76656411    -0.13100
C884        C  0.13585799  0.74712084  0.79607970    -0.14600
C885        C  0.08336280  0.72928563  0.91277338    -0.13100
C886        C  0.10217760  0.75103613  0.91236150     0.09000
C887        C  0.09770487  0.77293675  0.93419747    -0.13100
C888        C  0.07606938  0.77225251  0.95675753    -0.13100
C889        C  0.05847845  0.74970045  0.95825754     0.09000
C890        C  0.06202784  0.72845144  0.93565015    -0.13100
H891        H  0.08572370  0.71241838  0.89590102     0.13000
H892        H  0.11061230  0.79070681  0.93450058     0.13000
H893        H  0.04950551  0.77366977  0.43945971     0.13000
H894        H  0.04846224  0.71098151  0.93588776     0.13000
C895        C  0.19189297  0.78849795  0.86841565    -0.13100
C896        C  0.21015822  0.80497872  0.86816946    -0.14600
C897        C  0.24762094  0.62422410  0.76907578    -0.13100
C898        C  0.24604779  0.62462529  0.79859339    -0.14600
C899        C  0.26720110  0.57724130  0.91961647    -0.13100
C900        C  0.24292647  0.59247297  0.91543811     0.09000
C901        C  0.21949893  0.58446835  0.93333346    -0.13100
C902        C  0.22085438  0.56319595  0.95608524    -0.13100
C903        C  0.24558523  0.54926442  0.96160854     0.09000
C904        C  0.26865879  0.55624723  0.94276071    -0.13100
H905        H  0.28536033  0.58204233  0.90543155     0.13000
H906        H  0.19985275  0.59415355  0.92983087     0.13000
H907        H  0.20253591  0.55793285  0.96973758     0.13000
H908        H  0.28790286  0.54552689  0.94593863     0.13000
C909        C  0.18298824  0.69752472  0.87099668    -0.13100
C910        C  0.19923357  0.67894306  0.87103372    -0.14600
C911        C  0.29139389  0.67514428  0.87169354    -0.13100
C912        C  0.31014060  0.69116426  0.87072324    -0.14600
C913        C  0.75586246  0.11534582  0.38904911     0.86700
C914        C  0.73012730  0.13356675  0.39153113    -0.53500
C915        C  0.72940702  0.15404938  0.36900446     0.09600
C916        C  0.75440699  0.15503655  0.34624354     0.20600
C917        C  0.75650450  0.10573545  0.35309819    -0.54300
C918        C  0.75581343  0.12654028  0.33089553     0.09700
C919        C  0.77989070  0.13579502  0.39195045    -0.53800
C920        C  0.77899841  0.15631574  0.36953743     0.10300
H921        H  0.71402658  0.13068871  0.40964215     0.14800
H922        H  0.75376564  0.17193455  0.32809464     0.00600
H923        H  0.75742305  0.08444318  0.34594478     0.15100
H924        H  0.79559708  0.13534149  0.41069052     0.14900
C925        C  0.62597124  0.23245735  0.38898632     0.86700
C926        C  0.64450938  0.25754529  0.39424669    -0.53500
C927        C  0.66577709  0.25925404  0.37267345     0.09600
C928        C  0.66718358  0.23581984  0.34801914     0.20600
C929        C  0.61736038  0.23399752  0.35263610    -0.54300
C930        C  0.63902227  0.23565538  0.33144892     0.09700
C931        C  0.64613908  0.20808949  0.39055032    -0.53800
C932        C  0.66746912  0.21007048  0.36910441     0.10300
H933        H  0.64101255  0.27268229  0.41322265     0.14800
H934        H  0.68471952  0.23726420  0.33063650     0.00600
H935        H  0.59615327  0.23352211  0.34449389     0.15100
H936        H  0.64478542  0.19105774  0.40735358     0.14900
C937        C  0.87295055  0.24569176  0.39242355     0.86700
C938        C  0.85442320  0.22033156  0.39579999    -0.53500
C939        C  0.83458684  0.21858205  0.37233942     0.09600
C940        C  0.83457508  0.24217990  0.34783190     0.20600
C941        C  0.88392853  0.24443730  0.35693667    -0.54300
C942        C  0.86375726  0.24257521  0.33384871     0.09700
C943        C  0.85251792  0.26979242  0.39235354    -0.53800
C944        C  0.83268643  0.26776808  0.36910350     0.10300
H945        H  0.85685365  0.20513157  0.41494365     0.14800
H946        H  0.81821847  0.24070068  0.32893410     0.00600
H947        H  0.90560999  0.24489193  0.35074961     0.15100
H948        H  0.85246234  0.28666897  0.40939002     0.14900
C949        C  0.74497437  0.36257350  0.39005534     0.86700
C950        C  0.77074651  0.34426157  0.39186351    -0.53500
C951        C  0.77081360  0.32359160  0.36956801     0.09600
C952        C  0.74529575  0.32247323  0.34787468     0.20600
C953        C  0.74350465  0.37181481  0.35399603    -0.54300
C954        C  0.74367102  0.35076332  0.33215280     0.09700
C955        C  0.72102636  0.34220921  0.39427272    -0.53800
C956        C  0.72132276  0.32148783  0.37210158     0.10300
H957        H  0.78726761  0.34706493  0.40937727     0.14800
H958        H  0.74546147  0.30540361  0.32995793     0.00600
H959        H  0.74274044  0.39303896  0.34650583     0.15100
H960        H  0.70578044  0.34316018  0.41362407     0.14900
C961        C  0.75735172  0.11372685  0.17311256     0.86700
C962        C  0.78207919  0.13349705  0.17041921    -0.53500
C963        C  0.78138770  0.15424916  0.19261973     0.09600
C964        C  0.75646236  0.15379482  0.21541148     0.20600
C965        C  0.75727864  0.10443624  0.20926020    -0.54300
C966        C  0.75687930  0.12547791  0.23114951     0.09700
C967        C  0.73217183  0.13265690  0.17005074    -0.53800
C968        C  0.73176923  0.15332188  0.19233968     0.10300
H969        H  0.79821256  0.13233393  0.15220868     0.14800
H970        H  0.75602237  0.17083360  0.23336420     0.00600
H971        H  0.75745224  0.08320046  0.21675230     0.15100
H972        H  0.71609058  0.12993424  0.15192736     0.14900
C973        C  0.62864840  0.23188564  0.17401176     0.86700
C974        C  0.64900724  0.20775305  0.17222802    -0.53500
C975        C  0.67008845  0.20962454  0.19394210     0.09600
C976        C  0.66933914  0.23512430  0.21556770     0.20600
C977        C  0.61960128  0.23295205  0.21016486    -0.54300
C978        C  0.64088701  0.23464564  0.23170366     0.09700
C979        C  0.64702224  0.25721578  0.16933985    -0.53800
C980        C  0.66808031  0.25886001  0.19120757     0.10300
H981        H  0.64804580  0.19106039  0.15495851     0.14800
H982        H  0.68664284  0.23649341  0.23322892     0.00600
H983        H  0.59828129  0.23243967  0.21794898     0.15100
H984        H  0.64362049  0.27248161  0.15048636     0.14900
C985        C  0.87640248  0.24368436  0.17649083     0.86700
C986        C  0.85582370  0.26766199  0.17565170    -0.53500
C987        C  0.83517923  0.26543706  0.19797952     0.09600
C988        C  0.83647581  0.23967880  0.21911761     0.20600
C989        C  0.88613182  0.24225878  0.21237593    -0.54300
C990        C  0.86518509  0.24030948  0.23448530     0.09700
C991        C  0.85808382  0.21832751  0.17190469    -0.53800
C992        C  0.83748626  0.21621967  0.19434102     0.10300
H993        H  0.85634628  0.28443569  0.15841418     0.14800
H994        H  0.81948379  0.23801026  0.23722034     0.00600
H995        H  0.90756363  0.24317775  0.21957474     0.15100
H996        H  0.86105314  0.20342193  0.15254417     0.14900
C997        C  0.74916617  0.36123903  0.17458672     0.86700
C998        C  0.72515117  0.34105793  0.16970318    -0.53500
C999        C  0.72447920  0.32054889  0.19222067     0.09600
C1000       C  0.74777304  0.32153126  0.21735455     0.20600
C1001       C  0.74661477  0.37084463  0.21039523    -0.54300
C1002       C  0.74592289  0.35002591  0.23256126     0.09700
C1003       C  0.77479279  0.34265116  0.17411064    -0.53800
C1004       C  0.77395251  0.32214111  0.19661861     0.10300
H1005       H  0.71037496  0.34234154  0.14987663     0.14800
H1006       H  0.74720344  0.30464935  0.23553264     0.00600
H1007       H  0.74565234  0.39214622  0.21750208     0.15100
H1008       H  0.79171907  0.34477163  0.15699694     0.14900
O1009       O  0.52993910  0.21410249  0.06583302    -0.72700
O1010       O  0.97050969  0.22208964  0.49917448    -0.73700
O1011       O  0.52754483  0.21481172  0.49803872    -0.62300
O1012       O  0.97240311  0.22068352  0.06800577    -0.70700
O1013       O  0.97175175  0.26577821  0.06478300    -0.70300
O1014       O  0.52735896  0.25981327  0.49326672    -0.61500
O1015       O  0.96954196  0.26719426  0.50232377    -0.74100
O1016       O  0.52989762  0.25906810  0.07114916    -0.72800
Cu1017     Cu  0.50107262  0.21540663  0.03069367     1.04600
Cu1018     Cu  0.50145028  0.26349850  0.03614357     1.04300
C1019       C  0.53900101  0.23569300  0.07959397     0.93500
C1020       C  0.96052532  0.24492866  0.49011210     0.92600
C1021       C  0.53667549  0.23655691  0.48462436     0.84800
C1022       C  0.96305947  0.24362243  0.07765925     0.91000
O1023       O  0.72865486  0.45872997  0.06628090    -0.72700
O1024       O  0.72830445  0.01917531  0.49605500    -0.73700
O1025       O  0.72594340  0.46060417  0.49835730    -0.62300
O1026       O  0.72637645  0.01613352  0.06871685    -0.70700
O1027       O  0.77166614  0.01577749  0.06371867    -0.70300
O1028       O  0.77130968  0.46072239  0.49444928    -0.61500
O1029       O  0.77367623  0.01921259  0.49987787    -0.74100
O1030       O  0.77408191  0.45943045  0.06850341    -0.72800
Cu1031     Cu  0.72770283  0.48772826  0.03121680     1.04600
Cu1032     Cu  0.77629955  0.48837032  0.03365560     1.04300
C1033       C  0.75113909  0.44985567  0.07844331     0.93500
C1034       C  0.75163316  0.02829208  0.48683625     0.92600
C1035       C  0.74802430  0.45148022  0.48536559     0.84800
C1036       C  0.74994280  0.02513538  0.07725177     0.91000
C1037       C  0.77472199  0.39703140  0.14043973    -0.13100
C1038       C  0.74977375  0.38492788  0.15018002     0.09000
C1039       C  0.72519992  0.39626917  0.13811868    -0.13100
C1040       C  0.72563915  0.41732370  0.11498586    -0.13100
C1041       C  0.75063603  0.42820777  0.10390331     0.09000
C1042       C  0.77515660  0.41813385  0.11735816    -0.13100
H1043       H  0.79405897  0.39035533  0.15062579     0.13000
H1044       H  0.70548949  0.38884633  0.14640222     0.13000
H1045       H  0.70631865  0.42502889  0.10572163     0.13000
H1046       H  0.79477209  0.42650852  0.10999955     0.13000
C1047       C  0.90711520  0.26875457  0.13466796    -0.13100
C1048       C  0.90012512  0.24485625  0.15201807     0.09000
C1049       C  0.91583355  0.22124535  0.14634246    -0.12500
C1050       C  0.93621031  0.22085706  0.12224645    -0.13100
C1051       C  0.94208592  0.24435197  0.10388166     0.09000
C1052       C  0.92777969  0.26845080  0.11088605    -0.13100
H1053       H  0.89711196  0.28796128  0.13933752     0.13000
H1054       H  0.91181543  0.20276396  0.16002798     0.13000
H1055       H  0.94733176  0.20207973  0.11796466     0.13000
H1056       H  0.93230263  0.28705900  0.09767841     0.13000
C1057       C  0.81330648  0.28512622  0.19987857    -0.13100
C1058       C  0.79530573  0.30195668  0.19930230    -0.14600
C1059       C  0.58733405  0.25459275  0.14846972    -0.13100
C1060       C  0.60430943  0.23143137  0.15047934     0.09000
C1061       C  0.59791133  0.20882093  0.13054698    -0.13100
C1062       C  0.57627454  0.21000762  0.10816139    -0.13100
C1063       C  0.56048486  0.23374693  0.10501994     0.09000
C1064       C  0.56593007  0.25587784  0.12577824    -0.13100
H1065       H  0.59112392  0.27206107  0.16401226     0.13000
H1066       H  0.60917398  0.18997337  0.13186254     0.13000
H1067       H  0.57229429  0.19247803  0.09278213     0.13000
H1068       H  0.55375679  0.27430863  0.12433428     0.13000
C1069       C  0.70422341  0.29913692  0.19159622    -0.13100
C1070       C  0.68761474  0.28092783  0.19124451    -0.14600
C1071       C  0.73217719  0.07430146  0.14612147    -0.13100
C1072       C  0.75642719  0.08980126  0.14895868     0.09000
C1073       C  0.77900006  0.08236218  0.12921787    -0.13100
C1074       C  0.77689689  0.06117686  0.10643288    -0.13100
C1075       C  0.75223721  0.04675402  0.10256892     0.09000
C1076       C  0.72994733  0.05337956  0.12291240    -0.13100
H1077       H  0.71461996  0.07882476  0.16148325     0.13000
H1078       H  0.79859409  0.09238774  0.13124464     0.13000
H1079       H  0.79460780  0.05632874  0.09146907     0.13000
H1080       H  0.71076846  0.04236944  0.12093706     0.13000
C1081       C  0.71007442  0.17320314  0.19389507    -0.13100
C1082       C  0.69196402  0.18989992  0.19474156    -0.14600
C1083       C  0.81802442  0.19408313  0.19409762    -0.13100
C1084       C  0.80161100  0.17570119  0.19346613    -0.14600
C1085       C  0.74355352  0.35431924  0.29706945    -0.13100
C1086       C  0.74426674  0.35404199  0.26752262    -0.14600
C1087       C  0.72104067  0.39591580  0.42931359    -0.13100
C1088       C  0.74523936  0.38648867  0.41405994     0.09000
C1089       C  0.76984098  0.40056703  0.42041206    -0.13100
C1090       C  0.77070041  0.42166212  0.44340289    -0.13100
C1091       C  0.74679776  0.42990958  0.45994690     0.09000
C1092       C  0.72186293  0.41718617  0.45211162    -0.13100
H1093       H  0.70128031  0.38717327  0.42362618     0.13000
H1094       H  0.78863276  0.39505112  0.40790163     0.13000
H1095       H  0.79016881  0.43147718  0.44825571     0.13000
H1096       H  0.70294496  0.42350088  0.46381380     0.13000
C1097       C  0.86881121  0.24111496  0.29905884    -0.13100
C1098       C  0.86913428  0.24030872  0.26951547    -0.14600
C1099       C  0.91347894  0.22381023  0.42081043    -0.13100
C1100       C  0.89584495  0.24642196  0.41803248     0.09000
C1101       C  0.90030562  0.26878912  0.43915516    -0.13100
C1102       C  0.92134073  0.26829650  0.46237261    -0.13100
C1103       C  0.93844121  0.24548784  0.46532969     0.09000
C1104       C  0.93429960  0.22321772  0.44434037    -0.13100
H1105       H  0.91094040  0.20639329  0.40481343     0.13000
H1106       H  0.88814112  0.28707341  0.43806366     0.13000
H1107       H  0.92408874  0.28577321  0.47823930     0.13000
H1108       H  0.93606518  0.19394009  0.96419445     0.13000
C1109       C  0.81080810  0.28734031  0.36678637    -0.13100
C1110       C  0.79263353  0.30394039  0.36734505    -0.14600
C1111       C  0.63715094  0.23571851  0.26674042    -0.13100
C1112       C  0.63630967  0.23610257  0.29627432    -0.14600
C1113       C  0.59516845  0.20957668  0.43273631    -0.13100
C1114       C  0.60153808  0.23208964  0.41260180     0.09000
C1115       C  0.58485211  0.25545651  0.41512532    -0.13100
C1116       C  0.56378079  0.25694486  0.43838186    -0.13100
C1117       C  0.55829932  0.23479971  0.45917182     0.09000
C1118       C  0.57386456  0.21094076  0.45563064    -0.13100
H1119       H  0.60627247  0.19060071  0.43123357     0.13000
H1120       H  0.58867357  0.27295042  0.39959667     0.13000
H1121       H  0.57226338  0.28575405  0.97254433     0.13000
H1122       H  0.56989863  0.19339917  0.47101621     0.13000
C1123       C  0.68520448  0.28132595  0.37289873    -0.13100
C1124       C  0.70155404  0.29971300  0.37259282    -0.14600
C1125       C  0.75660426  0.12199530  0.26627939    -0.13100
C1126       C  0.75627789  0.12246824  0.29585446    -0.14600
C1127       C  0.77898330  0.08455044  0.43215580    -0.13100
C1128       C  0.75569099  0.09173417  0.41354743     0.09000
C1129       C  0.73163721  0.07619554  0.41777119    -0.13100
C1130       C  0.73022953  0.05568953  0.44156332    -0.13100
C1131       C  0.75315647  0.04953153  0.46104891     0.09000
C1132       C  0.77766666  0.06381685  0.45559340    -0.13100
H1133       H  0.79852614  0.09440191  0.42866155     0.13000
H1134       H  0.71361520  0.08035630  0.40309299     0.13000
H1135       H  0.71117918  0.04463439  0.44466249     0.13000
H1136       H  0.79588050  0.05916847  0.46972613     0.13000
C1137       C  0.68913464  0.19014555  0.36765980    -0.13100
C1138       C  0.70742177  0.17362638  0.36766877    -0.14600
C1139       C  0.79866013  0.17824261  0.36955095    -0.13100
C1140       C  0.81513075  0.19652586  0.37075805    -0.14600
C1141       C  0.74243172  0.11562269  0.89061506     0.86700
C1142       C  0.71879498  0.13665182  0.89335282    -0.53500
C1143       C  0.72099786  0.15782467  0.87186025     0.09600
C1144       C  0.74629760  0.15657299  0.84970586     0.20600
C1145       C  0.74263205  0.10721411  0.85414867    -0.54300
C1146       C  0.74453157  0.12871008  0.83295937     0.09700
C1147       C  0.76855767  0.13305698  0.89494026    -0.53800
C1148       C  0.77051016  0.15420437  0.87340854     0.10300
H1149       H  0.70217518  0.13583744  0.91095541     0.14800
H1150       H  0.74794925  0.17398567  0.83236377     0.00600
H1151       H  0.74115749  0.08622222  0.84593537     0.15100
H1152       H  0.78405659  0.12909884  0.91345945     0.14900
C1153       C  0.62617918  0.24705716  0.88827505     0.86700
C1154       C  0.64657504  0.27113627  0.89019825    -0.53500
C1155       C  0.66740477  0.26962449  0.86808425     0.09600
C1156       C  0.66657553  0.24441589  0.84603318     0.20600
C1157       C  0.61683566  0.24653017  0.85212770    -0.54300
C1158       C  0.63804781  0.24524438  0.83020837     0.09700
C1159       C  0.64461202  0.22170504  0.89210131    -0.53800
C1160       C  0.66549013  0.22034002  0.86995778     0.10300
H1161       H  0.64579389  0.28762193  0.90779412     0.14800
H1162       H  0.68378783  0.24331514  0.82816599     0.00600
H1163       H  0.59546592  0.24731014  0.84465645     0.15100
H1164       H  0.64150129  0.20625427  0.91082077     0.14900
C1165       C  0.87340906  0.23449065  0.89141156     0.86700
C1166       C  0.85380989  0.20986883  0.89494407    -0.53500
C1167       C  0.83265359  0.21007241  0.87317088     0.09600
C1168       C  0.83252582  0.23461787  0.85000421     0.20600
C1169       C  0.88232403  0.23439153  0.85519803    -0.54300
C1170       C  0.86087202  0.23440855  0.83376784     0.09700
C1171       C  0.85415827  0.25934234  0.89466818    -0.53800
C1172       C  0.83310514  0.25936178  0.87275490     0.10300
H1173       H  0.85548937  0.19422243  0.91360207     0.14800
H1174       H  0.81514426  0.23473263  0.83236877     0.00600
H1175       H  0.90362347  0.23444438  0.84731030     0.15100
H1176       H  0.85687313  0.27549606  0.91255738     0.14900
C1177       C  0.75652186  0.36375608  0.88869613     0.86700
C1178       C  0.77989780  0.34257097  0.89169284    -0.53500
C1179       C  0.77836827  0.32210769  0.86935393     0.09600
C1180       C  0.75392757  0.32410185  0.84603824     0.20600
C1181       C  0.75750747  0.37331296  0.85273018    -0.54300
C1182       C  0.75611267  0.35248756  0.83065777     0.09700
C1183       C  0.73019498  0.34636562  0.89114469    -0.53800
C1184       C  0.72899467  0.32583205  0.86869932     0.10300
H1185       H  0.79563638  0.34240077  0.91039251     0.14800
H1186       H  0.75281229  0.30720481  0.82793908     0.00600
H1187       H  0.75885044  0.39456917  0.84547586     0.15100
H1188       H  0.71415611  0.34978274  0.90919910     0.14900
C1189       C  0.74391014  0.11632639  0.67522428     0.86700
C1190       C  0.76978949  0.13429725  0.67184171    -0.53500
C1191       C  0.77070964  0.15548065  0.69334542     0.09600
C1192       C  0.74568086  0.15741209  0.71602552     0.20600
C1193       C  0.74318931  0.10794083  0.71161538    -0.54300
C1194       C  0.74407595  0.12945308  0.73280088     0.09700
C1195       C  0.72004105  0.13684231  0.67125599    -0.53800
C1196       C  0.72105570  0.15811406  0.69266946     0.10300
H1197       H  0.78586362  0.13082124  0.65386139     0.14800
H1198       H  0.74645420  0.17487694  0.73334607     0.00600
H1199       H  0.74218696  0.08690520  0.71980159     0.15100
H1200       H  0.70426143  0.13556113  0.65261025     0.14900
C1201       C  0.62521343  0.24639315  0.67235680     0.86700
C1202       C  0.64380765  0.22104849  0.66870268    -0.53500
C1203       C  0.66489886  0.22013327  0.69058709     0.09600
C1204       C  0.66605820  0.24457079  0.71386621     0.20600
C1205       C  0.61629120  0.24632561  0.70864045    -0.54300
C1206       C  0.63770901  0.24544507  0.73017253     0.09700
C1207       C  0.64549612  0.27050954  0.66936575    -0.53800
C1208       C  0.66660990  0.26940510  0.69116758     0.10300
H1209       H  0.64067478  0.20529875  0.65039449     0.14800
H1210       H  0.68343573  0.24381030  0.73148215     0.00600
H1211       H  0.59499515  0.24697199  0.71649077     0.15100
H1212       H  0.64431121  0.28653325  0.65114415     0.14900
C1213       C  0.87397284  0.23578727  0.67656699     0.86700
C1214       C  0.85462747  0.26051209  0.67317406    -0.53500
C1215       C  0.83346862  0.26049377  0.69487203     0.09600
C1216       C  0.83276665  0.23572038  0.71763891     0.20600
C1217       C  0.88262211  0.23554717  0.71281798    -0.54300
C1218       C  0.86102104  0.23542789  0.73408822     0.09700
C1219       C  0.85449619  0.21108233  0.67279278    -0.53800
C1220       C  0.83309767  0.21121034  0.69441545     0.10300
H1221       H  0.85705832  0.27650781  0.65500705     0.14800
H1222       H  0.81524663  0.23577620  0.73512762     0.00600
H1223       H  0.90386469  0.23545857  0.72085163     0.15100
H1224       H  0.85664925  0.19544454  0.65418100     0.14900
C1225       C  0.75606059  0.36384952  0.67326513     0.86700
C1226       C  0.73028635  0.34586862  0.66945117    -0.53500
C1227       C  0.72859712  0.32535245  0.69181160     0.09600
C1228       C  0.75272525  0.32409771  0.71573391     0.20600
C1229       C  0.75564030  0.37335057  0.70922709    -0.54300
C1230       C  0.75406877  0.35248954  0.73121605     0.09700
C1231       C  0.78003912  0.34321868  0.67137663    -0.53800
C1232       C  0.77803926  0.32263162  0.69367823     0.10300
H1233       H  0.71489326  0.34891317  0.65056181     0.14800
H1234       H  0.75132592  0.30717059  0.73378873     0.00600
H1235       H  0.75691805  0.39458392  0.71655448     0.15100
H1236       H  0.79654722  0.34374011  0.65358961     0.14900
O1237       O  0.52711565  0.21946058  0.56753117    -0.72700
O1238       O  0.97256298  0.21731342  0.99853313    -0.73700
O1239       O  0.53034905  0.21914496  0.99626757    -0.62300
O1240       O  0.97250546  0.21900251  0.56857352    -0.70700
O1241       O  0.97181842  0.26408764  0.57175234    -0.70300
O1242       O  0.53105595  0.26408955  0.00161401    -0.61500
O1243       O  0.97192491  0.26239417  0.99513432    -0.74100
O1244       O  0.52699829  0.26446323  0.56299463    -0.72800
Cu1245     Cu  0.49824017  0.21542321  0.53286422     1.04600
Cu1246     Cu  0.49804338  0.26353263  0.52764509     1.04300
C1247       C  0.53616393  0.24273445  0.57644210     0.93500
C1248       C  0.96308458  0.23917102  0.98578041     0.92600
C1249       C  0.53979351  0.24237784  0.98774232     0.84800
C1250       C  0.96324843  0.24084845  0.58153470     0.91000
O1251       O  0.73007357  0.46077807  0.56793110    -0.72700
O1252       O  0.72185506  0.01682557  0.99876143    -0.73700
O1253       O  0.73057455  0.45906242  0.99641592    -0.62300
O1254       O  0.72437454  0.01885955  0.56600580    -0.70700
O1255       O  0.76974965  0.01913190  0.56951731    -0.70300
O1256       O  0.77604300  0.45943907  0.99891366    -0.61500
O1257       O  0.76716383  0.01617385  0.99417255    -0.74100
O1258       O  0.77545147  0.46069695  0.56385814    -0.72800
Cu1259     Cu  0.72639480  0.48961135  0.53345657     1.04600
Cu1260     Cu  0.77489176  0.48961348  0.52893156     1.04300
C1261       C  0.75342160  0.45163295  0.57695138     0.93500
C1262       C  0.74389994  0.02574820  0.98543133     0.92600
C1263       C  0.75381265  0.45028823  0.98648402     0.84800
C1264       C  0.74640904  0.02800822  0.57902514     0.91000
C1265       C  0.78019255  0.39482936  0.63110483    -0.13100
C1266       C  0.75659797  0.38762976  0.64918135     0.09000
C1267       C  0.73269988  0.40336689  0.64494103    -0.13100
C1268       C  0.73166546  0.42408814  0.62153448    -0.13100
C1269       C  0.75484788  0.43032908  0.60252945     0.09000
C1270       C  0.77927850  0.41591548  0.60808247    -0.13100
H1271       H  0.79956833  0.38465766  0.63465560     0.13000
H1272       H  0.71446497  0.39914687  0.65927191     0.13000
H1273       H  0.71266758  0.43521347  0.61832317     0.13000
H1274       H  0.79766436  0.42065864  0.59426115     0.13000
C1275       C  0.91075499  0.26177183  0.64510986    -0.13100
C1276       C  0.89846966  0.23666930  0.65328265     0.09000
C1277       C  0.91011076  0.21269031  0.64041153    -0.12500
C1278       C  0.93154987  0.21398803  0.61765011    -0.13100
C1279       C  0.94212269  0.23926515  0.60754311     0.09000
C1280       C  0.93191279  0.26309490  0.62209385    -0.13100
H1281       H  0.90378333  0.28058955  0.65610584     0.13000
H1282       H  0.90269838  0.19283519  0.64772101     0.13000
H1283       H  0.93954502  0.19517861  0.60760180     0.13000
H1284       H  0.94010788  0.28286887  0.61551645     0.13000
C1285       C  0.81349445  0.28201140  0.69569747    -0.13100
C1286       C  0.79735280  0.30054451  0.69518391    -0.14600
C1287       C  0.59238687  0.27009659  0.63171804    -0.13100
C1288       C  0.60086337  0.24647173  0.64866137     0.09000
C1289       C  0.58586726  0.22231189  0.64362710    -0.13100
C1290       C  0.56485264  0.22114397  0.62036071    -0.13100
C1291       C  0.55754566  0.24436979  0.60222579     0.09000
C1292       C  0.57107978  0.26900846  0.60877445    -0.13100
H1293       H  0.60179453  0.28964464  0.63611556     0.13000
H1294       H  0.59087858  0.20400922  0.65717660     0.13000
H1295       H  0.55440490  0.20194759  0.61648300     0.13000
H1296       H  0.56548311  0.28744419  0.59580337     0.13000
C1297       C  0.70653643  0.30586136  0.69196428    -0.13100
C1298       C  0.68826108  0.28935028  0.69176139    -0.14600
C1299       C  0.71944892  0.08287116  0.63637908    -0.13100
C1300       C  0.74366324  0.09191456  0.65186090     0.09000
C1301       C  0.76811033  0.07750583  0.64555260    -0.13100
C1302       C  0.76893125  0.05676629  0.62209071    -0.13100
C1303       C  0.74510135  0.04908472  0.60509322     0.09000
C1304       C  0.72020319  0.06183787  0.61320213    -0.13100
H1305       H  0.69975694  0.09182194  0.64202670     0.13000
H1306       H  0.78689246  0.08271973  0.65820772     0.13000
H1307       H  0.78835121  0.04684618  0.61714211     0.13000
H1308       H  0.70131020  0.05585847  0.60126769     0.13000
C1309       C  0.70123208  0.17997296  0.69220146    -0.13100
C1310       C  0.68464676  0.19822375  0.69143060    -0.14600
C1311       C  0.81164809  0.19096162  0.69421514    -0.13100
C1312       C  0.79311099  0.17468169  0.69401580    -0.14600
C1313       C  0.75568278  0.35637375  0.79568826    -0.13100
C1314       C  0.75485600  0.35631175  0.76618327    -0.14600
C1315       C  0.73388917  0.40449899  0.91568764    -0.13100
C1316       C  0.75697331  0.38734309  0.91308858     0.09000
C1317       C  0.77972543  0.39276957  0.93341275    -0.13100
C1318       C  0.77870664  0.41340560  0.95685525    -0.13100
C1319       C  0.75504883  0.42931109  0.96061793     0.09000
C1320       C  0.73276189  0.42496951  0.93949100    -0.13100
H1321       H  0.71637299  0.40156751  0.89977093     0.13000
H1322       H  0.79869126  0.38159441  0.93144398     0.13000
H1323       H  0.79639386  0.41664259  0.97241866     0.13000
H1324       H  0.71445175  0.43739894  0.94136257     0.13000
C1325       C  0.86414583  0.23472853  0.79869605    -0.13100
C1326       C  0.86413683  0.23507195  0.76917348    -0.14600
C1327       C  0.90782094  0.21131679  0.92995516    -0.13100
C1328       C  0.89776823  0.23513926  0.91485948     0.09000
C1329       C  0.91149475  0.25986546  0.92100650    -0.13100
C1330       C  0.93276686  0.26118494  0.94387658    -0.13100
C1331       C  0.94152413  0.23762454  0.96036519     0.09000
C1332       C  0.92928088  0.21259126  0.95255553    -0.13100
H1333       H  0.89945499  0.19150047  0.92432912     0.13000
H1334       H  0.90543504  0.27839151  0.90856371     0.13000
H1335       H  0.94226135  0.28071335  0.94873628     0.13000
H1336       H  0.94736116  0.20540240  0.44586788     0.13000
C1337       C  0.81337762  0.28107708  0.87085281    -0.13100
C1338       C  0.79724091  0.29959595  0.86950446    -0.14600
C1339       C  0.63441764  0.24536744  0.76540134    -0.13100
C1340       C  0.63447679  0.24526157  0.79502191    -0.14600
C1341       C  0.58600166  0.22372215  0.91619550    -0.13100
C1342       C  0.60236084  0.24722336  0.91281442     0.09000
C1343       C  0.59637002  0.26973781  0.93312457    -0.13100
C1344       C  0.57596343  0.26817781  0.95713752    -0.13100
C1345       C  0.56084277  0.24416048  0.96158209     0.09000
C1346       C  0.56581219  0.22205119  0.94054583    -0.13100
H1347       H  0.58943302  0.20625499  0.90051193     0.13000
H1348       H  0.60700210  0.28890443  0.93081357     0.13000
H1349       H  0.55181321  0.27549821  0.44013788     0.13000
H1350       H  0.55407990  0.20340758  0.94289204     0.13000
C1351       C  0.68891251  0.28966751  0.86690655    -0.13100
C1352       C  0.70688248  0.30647537  0.86740094    -0.14600
C1353       C  0.74403162  0.12641155  0.76805874    -0.13100
C1354       C  0.74425880  0.12601946  0.79767229    -0.14600
C1355       C  0.76485704  0.07443243  0.91730716    -0.13100
C1356       C  0.74148893  0.09114614  0.91406610     0.09000
C1357       C  0.71811616  0.08445253  0.93291743    -0.13100
C1358       C  0.71872711  0.06292919  0.95549525    -0.13100
C1359       C  0.74266168  0.04745726  0.96000570     0.09000
C1360       C  0.76559966  0.05321929  0.94027482    -0.13100
H1361       H  0.78294412  0.07828960  0.90258462     0.13000
H1362       H  0.69905670  0.09540902  0.93040685     0.13000
H1363       H  0.70052630  0.05871812  0.96987503     0.13000
H1364       H  0.78424397  0.04136077  0.94264702     0.13000
C1365       C  0.68517789  0.19839148  0.86989875    -0.13100
C1366       C  0.70147494  0.17990242  0.87064673    -0.14600
C1367       C  0.79304527  0.17321183  0.87345899    -0.13100
C1368       C  0.81135141  0.18971818  0.87326124    -0.14600
C1369       C  0.74357194  0.61527058  0.38862964     0.86700
C1370       C  0.71872470  0.63487840  0.39055804    -0.53500
C1371       C  0.72008748  0.65598472  0.36891455     0.09600
C1372       C  0.74575262  0.65593166  0.34725185     0.20600
C1373       C  0.74500229  0.60647076  0.35242093    -0.54300
C1374       C  0.74602969  0.62777971  0.33095471     0.09700
C1375       C  0.76848230  0.63425463  0.39343256    -0.53800
C1376       C  0.76957436  0.65522742  0.37162928     0.10300
H1377       H  0.70226563  0.63355684  0.40835132     0.14800
H1378       H  0.74672712  0.67325057  0.32970696     0.00600
H1379       H  0.74505484  0.58533051  0.34455635     0.15100
H1380       H  0.78380900  0.63146737  0.41245752     0.14900
C1381       C  0.62781682  0.74783982  0.38884431     0.86700
C1382       C  0.64895700  0.77124716  0.39116729    -0.53500
C1383       C  0.66995527  0.76912761  0.36928823     0.09600
C1384       C  0.66838366  0.74400210  0.34706444     0.20600
C1385       C  0.61872658  0.74761221  0.35272624    -0.54300
C1386       C  0.63996370  0.74559868  0.33109792     0.09700
C1387       C  0.64539330  0.72185915  0.39283007    -0.53800
C1388       C  0.66631799  0.71987710  0.37076583     0.10300
H1389       H  0.64846718  0.78759707  0.40896540     0.14800
H1390       H  0.68560692  0.74234763  0.32927275     0.00600
H1391       H  0.59741998  0.74872725  0.34503875     0.15100
H1392       H  0.64150614  0.70633711  0.41124998     0.14900
C1393       C  0.87363465  0.73246008  0.39249426     0.86700
C1394       C  0.85194605  0.70958073  0.39589421    -0.53500
C1395       C  0.83147746  0.71111784  0.37333577     0.09600
C1396       C  0.83399266  0.73503460  0.34949776     0.20600
C1397       C  0.88343170  0.73056718  0.35659504    -0.54300
C1398       C  0.86258778  0.73189485  0.33432019     0.09700
C1399       C  0.85665812  0.75887992  0.39410902    -0.53800
C1400       C  0.83618107  0.76014344  0.37156495     0.10300
H1401       H  0.85180092  0.69373707  0.41434349     0.14800
H1402       H  0.81709178  0.73617553  0.33126175     0.00600
H1403       H  0.90483064  0.72848435  0.34954080     0.15100
H1404       H  0.86038785  0.77506973  0.41171014     0.14900
C1405       C  0.75851306  0.86381291  0.39053125     0.86700
C1406       C  0.78279237  0.84353450  0.39299439    -0.53500
C1407       C  0.78176122  0.82310544  0.37048075     0.09600
C1408       C  0.75700583  0.82422145  0.34761419     0.20600
C1409       C  0.75890510  0.87347910  0.35448506    -0.54300
C1410       C  0.75818359  0.85266453  0.33226529     0.09700
C1411       C  0.73290134  0.84542297  0.39316245    -0.53800
C1412       C  0.73221297  0.82492922  0.37062436     0.10300
H1413       H  0.79898026  0.84410017  0.41108101     0.14800
H1414       H  0.75637683  0.80734539  0.32944855     0.00600
H1415       H  0.75976808  0.89477229  0.34730852     0.15100
H1416       H  0.71684809  0.84829073  0.41133421     0.14900
C1417       C  0.74552568  0.61504231  0.17323733     0.86700
C1418       C  0.77075101  0.63376945  0.16931918    -0.53500
C1419       C  0.77151941  0.65466314  0.19125828     0.09600
C1420       C  0.74707648  0.65557004  0.21480133     0.20600
C1421       C  0.74600672  0.60614333  0.20950651    -0.54300
C1422       C  0.74674652  0.62742704  0.23103989     0.09700
C1423       C  0.72091558  0.63487081  0.17064244    -0.53800
C1424       C  0.72190886  0.65582645  0.19241809     0.10300
H1425       H  0.78664664  0.63070584  0.15099175     0.14800
H1426       H  0.74776843  0.67282761  0.23243089     0.00600
H1427       H  0.74574647  0.58499162  0.21733686     0.15100
H1428       H  0.70469488  0.63372693  0.15258461     0.14900
C1429       C  0.62794083  0.74607478  0.17367708     0.86700
C1430       C  0.64568560  0.72026345  0.16944431    -0.53500
C1431       C  0.66637541  0.71811099  0.19172670     0.09600
C1432       C  0.66798804  0.74179466  0.21600044     0.20600
C1433       C  0.61842178  0.74534899  0.20974176    -0.54300
C1434       C  0.63947115  0.74320078  0.23161344     0.09700
C1435       C  0.64897413  0.76970565  0.17230984    -0.53800
C1436       C  0.66966884  0.76724715  0.19453054     0.10300
H1437       H  0.64216088  0.70507117  0.15055540     0.14800
H1438       H  0.68502592  0.73998742  0.23398570     0.00600
H1439       H  0.59706922  0.74678897  0.21721300     0.15100
H1440       H  0.64851345  0.78663455  0.15535919     0.14900
C1441       C  0.87690715  0.73143124  0.17702769     0.86700
C1442       C  0.85921585  0.75745560  0.17414995    -0.53500
C1443       C  0.83785068  0.75846905  0.19571029     0.09600
C1444       C  0.83566872  0.73348131  0.21807990     0.20600
C1445       C  0.88544960  0.73021314  0.21334302    -0.54300
C1446       C  0.86383886  0.73122941  0.23461335     0.09700
C1447       C  0.85588988  0.70805881  0.17293533    -0.53800
C1448       C  0.83456250  0.70930975  0.19444047     0.10300
H1449       H  0.86306863  0.77349583  0.15637740     0.14800
H1450       H  0.81812877  0.73432722  0.23550865     0.00600
H1451       H  0.90663193  0.72874787  0.22141398     0.15100
H1452       H  0.85662037  0.69243044  0.15424274     0.14900
C1453       C  0.75802695  0.86101889  0.17400863     0.86700
C1454       C  0.73229287  0.84288231  0.17268873    -0.53500
C1455       C  0.73184626  0.82279227  0.19568317     0.09600
C1456       C  0.75702864  0.82222099  0.21810308     0.20600
C1457       C  0.75918183  0.87135818  0.20972722    -0.54300
C1458       C  0.75862252  0.85101706  0.23259050     0.09700
C1459       C  0.78220363  0.84051802  0.17151019    -0.53800
C1460       C  0.78147770  0.82042034  0.19459456     0.10300
H1461       H  0.71595811  0.84556556  0.15486734     0.14800
H1462       H  0.75650203  0.80571002  0.23676904     0.00600
H1463       H  0.76011031  0.89278624  0.21625268     0.15100
H1464       H  0.79837472  0.84098069  0.15336995     0.14900
O1465       O  0.52833307  0.72161349  0.07048531    -0.72700
O1466       O  0.96978546  0.71591545  0.50229942    -0.73700
O1467       O  0.52884381  0.72385188  0.49303150    -0.62300
O1468       O  0.97347124  0.71694009  0.06511660    -0.70700
O1469       O  0.97232454  0.76187496  0.07059491    -0.70300
O1470       O  0.52977103  0.76886334  0.49748541    -0.61500
O1471       O  0.97116017  0.76094682  0.49764418    -0.74100
O1472       O  0.52952840  0.76657343  0.06528787    -0.72800
Cu1473     Cu  0.49887089  0.71822279  0.03656153     1.04600
Cu1474     Cu  0.49970955  0.76630747  0.03098745     1.04300
C1475       C  0.53828644  0.74467388  0.07872490     0.93500
C1476       C  0.96111967  0.73793230  0.48926593     0.92600
C1477       C  0.53834827  0.74692677  0.48401549     0.84800
C1478       C  0.96423685  0.73821160  0.07944904     0.91000
O1479       O  0.72585980  0.95799078  0.06832736    -0.72700
O1480       O  0.72579258  0.51859164  0.49862993    -0.73700
O1481       O  0.72878266  0.96137609  0.49537890    -0.62300
O1482       O  0.72789575  0.51672122  0.06585684    -0.70700
O1483       O  0.77333786  0.51731440  0.06838067    -0.70300
O1484       O  0.77408765  0.96116184  0.50029118    -0.61500
O1485       O  0.77113078  0.51835523  0.49415460    -0.74100
O1486       O  0.77114221  0.95761366  0.06303446    -0.72800
Cu1487     Cu  0.72222615  0.98736552  0.03365502     1.04600
Cu1488     Cu  0.77066047  0.98702270  0.02861562     1.04300
C1489       C  0.74930897  0.94841122  0.07646708     0.93500
C1490       C  0.74774798  0.52751187  0.48521903     0.92600
C1491       C  0.75223865  0.95203669  0.48689087     0.84800
C1492       C  0.75005406  0.52624199  0.07805044     0.91000
C1493       C  0.77662525  0.88777591  0.12393623    -0.13100
C1494       C  0.75668441  0.88410467  0.14865486     0.09000
C1495       C  0.73418429  0.90222435  0.14922765    -0.13100
C1496       C  0.73144607  0.92288576  0.12567172    -0.13100
C1497       C  0.75148502  0.92637734  0.10127691     0.09000
C1498       C  0.77407453  0.90866102  0.10080156    -0.13100
H1499       H  0.79438779  0.87490468  0.12189856     0.13000
H1500       H  0.71845791  0.90013804  0.16784839     0.13000
H1501       H  0.71385794  0.93633476  0.12679597     0.13000
H1502       H  0.78978521  0.91075258  0.08215300     0.13000
C1503       C  0.91814973  0.75485889  0.15165019    -0.13100
C1504       C  0.90140593  0.73151676  0.15353719     0.09000
C1505       C  0.90782343  0.70928382  0.13298528    -0.12500
C1506       C  0.92870838  0.71126382  0.10960373    -0.13100
C1507       C  0.94378765  0.73542363  0.10609480     0.09000
C1508       C  0.93875874  0.75698331  0.12788724    -0.13100
H1509       H  0.91456063  0.77196792  0.16785311     0.13000
H1510       H  0.89704261  0.69016395  0.13455392     0.13000
H1511       H  0.93256591  0.69403949  0.09366402     0.13000
H1512       H  0.95056706  0.77562775  0.12635238     0.13000
C1513       C  0.81825845  0.78057002  0.19622430    -0.13100
C1514       C  0.80160382  0.79879882  0.19590391    -0.14600
C1515       C  0.59865151  0.76954180  0.12893073    -0.13100
C1516       C  0.60394445  0.74704938  0.14957151     0.09000
C1517       C  0.58621212  0.72445605  0.14764780    -0.13100
C1518       C  0.56487627  0.72371113  0.12479535    -0.13100
C1519       C  0.56023369  0.74586021  0.10372680     0.09000
C1520       C  0.57704418  0.76892052  0.10641486    -0.13100
H1521       H  0.61071467  0.78786705  0.12981500     0.13000
H1522       H  0.58925881  0.70702643  0.16352921     0.13000
H1523       H  0.55200726  0.70576320  0.12362837     0.13000
H1524       H  0.57380249  0.78639921  0.09066557     0.13000
C1525       C  0.71000787  0.80311853  0.19741802    -0.13100
C1526       C  0.69163637  0.78673018  0.19690081    -0.14600
C1527       C  0.72257243  0.58335778  0.13100513    -0.13100
C1528       C  0.74579903  0.59097771  0.14943350     0.09000
C1529       C  0.77000147  0.57557165  0.14553330    -0.13100
C1530       C  0.77153047  0.55462097  0.12233925    -0.13100
C1531       C  0.74858579  0.54792024  0.10319789     0.09000
C1532       C  0.72400819  0.56220803  0.10820678    -0.13100
H1533       H  0.70295258  0.59316748  0.13412361     0.13000
H1534       H  0.78802587  0.58019065  0.15999173     0.13000
H1535       H  0.79066154  0.54364048  0.11944717     0.13000
H1536       H  0.70582340  0.55723709  0.09420145     0.13000
C1537       C  0.70184156  0.67735667  0.19265870    -0.13100
C1538       C  0.68541690  0.69569101  0.19218468    -0.14600
C1539       C  0.81220181  0.69018155  0.19364461    -0.13100
C1540       C  0.79361053  0.67406923  0.19243960    -0.14600
C1541       C  0.75875271  0.85639281  0.29714378    -0.13100
C1542       C  0.75895150  0.85574680  0.26755060    -0.14600
C1543       C  0.73465511  0.90441434  0.41655999    -0.13100
C1544       C  0.75795411  0.88741144  0.41515479     0.09000
C1545       C  0.77976073  0.89295571  0.43691168    -0.13100
C1546       C  0.77788911  0.91408722  0.45976957    -0.13100
C1547       C  0.75423688  0.93029027  0.46177945     0.09000
C1548       C  0.73265371  0.92532962  0.43981299    -0.13100
H1549       H  0.71768417  0.90114854  0.39991457     0.13000
H1550       H  0.79858549  0.88151407  0.43660284     0.13000
H1551       H  0.79495387  0.91750623  0.47625312     0.13000
H1552       H  0.71425642  0.93769703  0.44049457     0.13000
C1553       C  0.86660219  0.73080089  0.29932691    -0.13100
C1554       C  0.86686481  0.73061564  0.26976885    -0.14600
C1555       C  0.90115407  0.71180628  0.44033794    -0.13100
C1556       C  0.89716941  0.73266801  0.41708327     0.09000
C1557       C  0.91538779  0.75497961  0.41730054    -0.13100
C1558       C  0.93597252  0.75704529  0.44099435    -0.13100
C1559       C  0.93930785  0.73641876  0.46442097     0.09000
C1560       C  0.92194334  0.71369178  0.46360703    -0.13100
H1561       H  0.88867381  0.69370979  0.44100626     0.13000
H1562       H  0.91325245  0.77117462  0.39943817     0.13000
H1563       H  0.94942812  0.77460752  0.44079145     0.13000
H1564       H  0.94832763  0.70682294  0.94160407     0.13000
C1565       C  0.81752403  0.78274234  0.36980371    -0.13100
C1566       C  0.80151696  0.80138688  0.36957625    -0.14600
C1567       C  0.63588907  0.74360228  0.26662712    -0.13100
C1568       C  0.63625837  0.74447699  0.29612379    -0.14600
C1569       C  0.58667102  0.72574041  0.41585945    -0.13100
C1570       C  0.60349421  0.74888849  0.41246053     0.09000
C1571       C  0.59678328  0.77230179  0.43086107    -0.13100
C1572       C  0.57520978  0.77185795  0.45346558    -0.13100
C1573       C  0.55973737  0.74809294  0.45827316     0.09000
C1574       C  0.56537198  0.72518561  0.43880218    -0.13100
H1575       H  0.59049986  0.70770683  0.40126879     0.13000
H1576       H  0.60772919  0.79123131  0.42797055     0.13000
H1577       H  0.55125836  0.77598163  0.94104089     0.13000
H1578       H  0.55342327  0.70671420  0.44143823     0.13000
C1579       C  0.69219310  0.78850040  0.36846921    -0.13100
C1580       C  0.71041055  0.80511205  0.36916418    -0.14600
C1581       C  0.74704152  0.62424661  0.26621849    -0.13100
C1582       C  0.74686359  0.62446863  0.29580319    -0.14600
C1583       C  0.76807563  0.57652086  0.41756580    -0.13100
C1584       C  0.74358306  0.59113903  0.41233296     0.09000
C1585       C  0.71987358  0.58273278  0.42941151    -0.13100
C1586       C  0.72117337  0.56182131  0.45263571    -0.13100
C1587       C  0.74610600  0.54863920  0.45935100     0.09000
C1588       C  0.76945536  0.55588602  0.44113537    -0.13100
H1589       H  0.78648581  0.58161446  0.40398709     0.13000
H1590       H  0.70010869  0.59187898  0.42495661     0.13000
H1591       H  0.70263335  0.55623602  0.46567755     0.13000
H1592       H  0.78886645  0.54569559  0.44517517     0.13000
C1593       C  0.68474402  0.69691926  0.36966358    -0.13100
C1594       C  0.70048145  0.67797725  0.36888076    -0.14600
C1595       C  0.79106245  0.67529450  0.37198601    -0.13100
C1596       C  0.80926561  0.69185113  0.37240716    -0.14600
C1597       C  0.75365466  0.61359270  0.88928593     0.86700
C1598       C  0.72743711  0.63124070  0.89127040    -0.53500
C1599       C  0.72711856  0.65243059  0.86971300     0.09600
C1600       C  0.75289829  0.65463181  0.84837204     0.20600
C1601       C  0.75583535  0.60519185  0.85298961    -0.54300
C1602       C  0.75540398  0.62671572  0.83176707     0.09700
C1603       C  0.77704864  0.63440787  0.89449739    -0.53800
C1604       C  0.77663333  0.65558309  0.87295138     0.10300
H1605       H  0.71083679  0.62778676  0.90855129     0.14800
H1606       H  0.75256040  0.67208857  0.83099510     0.00600
H1607       H  0.75736058  0.58416889  0.84489303     0.15100
H1608       H  0.79219523  0.63319651  0.91390897     0.14900
C1609       C  0.62325526  0.73072985  0.88826479     0.86700
C1610       C  0.64170746  0.75606653  0.89192877    -0.53500
C1611       C  0.66266657  0.75722520  0.86991681     0.09600
C1612       C  0.66393216  0.73293503  0.84642738     0.20600
C1613       C  0.61416009  0.73097057  0.85202794    -0.54300
C1614       C  0.63555234  0.73202280  0.83036666     0.09700
C1615       C  0.64360066  0.70656311  0.89071654    -0.53800
C1616       C  0.66464413  0.70791230  0.86878248     0.10300
H1617       H  0.63840746  0.77178564  0.91026012     0.14800
H1618       H  0.68124616  0.73390398  0.82868618     0.00600
H1619       H  0.59284391  0.73029726  0.84432477     0.15100
H1620       H  0.64258343  0.69020266  0.90846982     0.14900
C1621       C  0.87093349  0.74568182  0.89299768     0.86700
C1622       C  0.85312653  0.71991748  0.89732297    -0.53500
C1623       C  0.83255562  0.71765118  0.87486137     0.09600
C1624       C  0.83127093  0.74110893  0.85018814     0.20600
C1625       C  0.88077561  0.74466658  0.85705432    -0.54300
C1626       C  0.85996261  0.74231694  0.83489762     0.09700
C1627       C  0.84994486  0.76936627  0.89373396    -0.53800
C1628       C  0.82942360  0.76672161  0.87134482     0.10300
H1629       H  0.85645111  0.70492545  0.91651052     0.14800
H1630       H  0.81438510  0.73920458  0.83202133     0.00600
H1631       H  0.90219760  0.74603032  0.84985566     0.15100
H1632       H  0.85031031  0.78652681  0.91032214     0.14900
C1633       C  0.74080132  0.86097587  0.88903551     0.86700
C1634       C  0.76627548  0.84239108  0.89185790    -0.53500
C1635       C  0.76701315  0.82200095  0.86929484     0.09600
C1636       C  0.74228306  0.82134448  0.84625240     0.20600
C1637       C  0.74063230  0.87063603  0.85315600    -0.54300
C1638       C  0.74136240  0.84988374  0.83098391     0.09700
C1639       C  0.71651544  0.84081642  0.89173739    -0.53800
C1640       C  0.71745953  0.82024867  0.86927894     0.10300
H1641       H  0.78213153  0.84476204  0.91031805     0.14800
H1642       H  0.74296702  0.80448992  0.82806292     0.00600
H1643       H  0.74015431  0.89195367  0.84601111     0.15100
H1644       H  0.70065373  0.84178861  0.91037805     0.14900
C1645       C  0.75839231  0.61549820  0.67390982     0.86700
C1646       C  0.78243959  0.63605367  0.67138753    -0.53500
C1647       C  0.78078731  0.65693622  0.69330448     0.09600
C1648       C  0.75564966  0.65579973  0.71577692     0.20600
C1649       C  0.75828645  0.60644336  0.71011841    -0.54300
C1650       C  0.75694812  0.62757636  0.73181626     0.09700
C1651       C  0.73260680  0.63351644  0.67027000    -0.53800
C1652       C  0.73121594  0.65433080  0.69228558     0.10300
H1653       H  0.79883902  0.63531403  0.65349360     0.14800
H1654       H  0.75444972  0.67293886  0.73353627     0.00600
H1655       H  0.75922325  0.58527162  0.71780273     0.15100
H1656       H  0.71687930  0.63013081  0.65186563     0.14900
C1657       C  0.62747205  0.73284656  0.67238225     0.86700
C1658       C  0.64794344  0.70879011  0.66971148    -0.53500
C1659       C  0.66837967  0.70957006  0.69245635     0.09600
C1660       C  0.66690756  0.73396622  0.71578162     0.20600
C1661       C  0.61734807  0.73210160  0.70817011    -0.54300
C1662       C  0.63801044  0.73264396  0.73068705     0.09700
C1663       C  0.64592405  0.75824991  0.67029239    -0.53800
C1664       C  0.66628152  0.75879878  0.69304181     0.10300
H1665       H  0.64751188  0.69301748  0.65118582     0.14800
H1666       H  0.68370429  0.73451892  0.73419022     0.00600
H1667       H  0.59581074  0.73130466  0.71499301     0.15100
H1668       H  0.64322622  0.77432040  0.65225043     0.14900
C1669       C  0.87541579  0.74685572  0.67784859     0.86700
C1670       C  0.85516702  0.77102944  0.67531987    -0.53500
C1671       C  0.83363158  0.76935269  0.69645593     0.09600
C1672       C  0.83379834  0.74391200  0.71824430     0.20600
C1673       C  0.88368521  0.74583262  0.71426865    -0.54300
C1674       C  0.86186483  0.74432695  0.73519488     0.09700
C1675       C  0.85702543  0.72158981  0.67282507    -0.53800
C1676       C  0.83554973  0.72005140  0.69414532     0.10300
H1677       H  0.85649985  0.78752463  0.65777691     0.14800
H1678       H  0.81610125  0.74264991  0.73540740     0.00600
H1679       H  0.90482959  0.74619416  0.72264641     0.15100
H1680       H  0.86075558  0.70620304  0.65421239     0.14900
C1681       C  0.74347441  0.86267999  0.67342435     0.86700
C1682       C  0.72001406  0.84151641  0.67060129    -0.53500
C1683       C  0.72165745  0.82102775  0.69301730     0.09600
C1684       C  0.74620186  0.82296765  0.71610199     0.20600
C1685       C  0.74246497  0.87214399  0.70947469    -0.54300
C1686       C  0.74383992  0.85126228  0.73152236     0.09700
C1687       C  0.76981472  0.84528348  0.67093700    -0.53800
C1688       C  0.77110836  0.82473358  0.69339473     0.10300
H1689       H  0.70382560  0.84169187  0.65245315     0.14800
H1690       H  0.74734577  0.80606965  0.73422266     0.00600
H1691       H  0.74068258  0.89334734  0.71678496     0.15100
H1692       H  0.78589281  0.84884779  0.65296990     0.14900
O1693       O  0.53052018  0.71958179  0.56216361    -0.72700
O1694       O  0.97120536  0.72204581  0.99574987    -0.73700
O1695       O  0.52747809  0.71666754  0.00111971    -0.62300
O1696       O  0.97182496  0.71943638  0.57153998    -0.70700
O1697       O  0.97236054  0.76448186  0.56734981    -0.70300
O1698       O  0.52811182  0.76161442  0.99564866    -0.61500
O1699       O  0.96949421  0.76698875  0.00099039    -0.74100
O1700       O  0.53066672  0.76457428  0.56718378    -0.72800
Cu1701     Cu  0.50070236  0.72042678  0.52867003     1.04600
Cu1702     Cu  0.50105979  0.76859267  0.53304180     1.04300
C1703       C  0.53993684  0.74117753  0.57545215     0.93500
C1704       C  0.96080555  0.74499142  0.98777067     0.92600
C1705       C  0.53670896  0.73806863  0.98705066     0.84800
C1706       C  0.96332933  0.74279812  0.58096264     0.91000
O1707       O  0.72476675  0.96069482  0.56501709    -0.72700
O1708       O  0.72995896  0.51649472  0.99627804    -0.73700
O1709       O  0.72132079  0.95845161  0.99826148    -0.62300
O1710       O  0.73012759  0.51841405  0.56844810    -0.70700
O1711       O  0.77545234  0.51861046  0.56374135    -0.70300
O1712       O  0.76665015  0.95853472  0.99389458    -0.61500
O1713       O  0.77539685  0.51719680  0.99849754    -0.74100
O1714       O  0.77008328  0.96150026  0.56977997    -0.72800
Cu1715     Cu  0.72496279  0.99005167  0.53051724     1.04600
Cu1716     Cu  0.77344960  0.99029524  0.53495141     1.04300
C1717       C  0.74679646  0.95183056  0.57829331     0.93500
C1718       C  0.75292204  0.52580970  0.98607138     0.92600
C1719       C  0.74330069  0.94937805  0.98495609     0.84800
C1720       C  0.75355445  0.52757693  0.57725092     0.91000
C1721       C  0.76590708  0.90424808  0.64797833    -0.13100
C1722       C  0.74320126  0.88649341  0.64914583     0.09000
C1723       C  0.72109411  0.89168406  0.62770632    -0.13100
C1724       C  0.72216793  0.91312746  0.60519602    -0.13100
C1725       C  0.74533734  0.92998133  0.60327662     0.09000
C1726       C  0.76713735  0.92546228  0.62507647    -0.13100
H1727       H  0.78303001  0.90133331  0.66451013     0.13000
H1728       H  0.70258145  0.87967165  0.62803893     0.13000
H1729       H  0.70494393  0.91624837  0.58887155     0.13000
H1730       H  0.78515091  0.93838226  0.62448543     0.13000
C1731       C  0.90740814  0.77045882  0.63614226    -0.13100
C1732       C  0.90006896  0.74729011  0.65466725     0.09000
C1733       C  0.91601848  0.72355060  0.65099412    -0.12500
C1734       C  0.93675830  0.72212788  0.62735446    -0.13100
C1735       C  0.94269223  0.74473392  0.60748309     0.09000
C1736       C  0.92839726  0.76913384  0.61285053    -0.13100
H1737       H  0.89730557  0.78980649  0.63927366     0.13000
H1738       H  0.91172052  0.70565950  0.66567739     0.13000
H1739       H  0.94793466  0.70321875  0.62439395     0.13000
H1740       H  0.93299213  0.78713374  0.59848568     0.13000
C1741       C  0.81181332  0.78916719  0.69647506    -0.13100
C1742       C  0.79354506  0.80568039  0.69515161    -0.14600
C1743       C  0.58758210  0.75755393  0.64602385    -0.13100
C1744       C  0.60397914  0.73391696  0.64769046     0.09000
C1745       C  0.59798123  0.71230487  0.62614288    -0.13100
C1746       C  0.57711294  0.71474748  0.60293136    -0.13100
C1747       C  0.56169263  0.73880604  0.60047450     0.09000
C1748       C  0.56699597  0.76015822  0.62238891    -0.13100
H1749       H  0.59113605  0.77434238  0.66271160     0.13000
H1750       H  0.60887144  0.69320813  0.62699873     0.13000
H1751       H  0.57323172  0.69778638  0.58661372     0.13000
H1752       H  0.55510018  0.77878139  0.62144047     0.13000
C1753       C  0.70225489  0.79898516  0.69425602    -0.13100
C1754       C  0.68597853  0.78055809  0.69447313    -0.14600
C1755       C  0.73492890  0.57490208  0.64749154    -0.13100
C1756       C  0.75846939  0.59146508  0.64993900     0.09000
C1757       C  0.78107958  0.58517432  0.62967299    -0.13100
C1758       C  0.77954548  0.56416813  0.60660226    -0.13100
C1759       C  0.75543700  0.54884170  0.60297524     0.09000
C1760       C  0.73325242  0.55416484  0.62401506    -0.13100
H1761       H  0.71741079  0.57855089  0.66326691     0.13000
H1762       H  0.80022385  0.59605029  0.63134037     0.13000
H1763       H  0.79719207  0.56024962  0.59113309     0.13000
H1764       H  0.71456133  0.54233598  0.62229785     0.13000
C1765       C  0.70890357  0.67362290  0.69290608    -0.13100
C1766       C  0.69037014  0.68990619  0.69308815    -0.14600
C1767       C  0.81633421  0.69772083  0.69410253    -0.13100
C1768       C  0.80028097  0.67903146  0.69395970    -0.14600
C1769       C  0.74189798  0.85412570  0.79604673    -0.13100
C1770       C  0.74270085  0.85479265  0.76653645    -0.14600
C1771       C  0.71633777  0.89476708  0.92729881    -0.13100
C1772       C  0.74077663  0.88469017  0.91327018     0.09000
C1773       C  0.76551796  0.89807630  0.92084982    -0.13100
C1774       C  0.76621988  0.91902030  0.94395547    -0.13100
C1775       C  0.74204336  0.92795324  0.95934872     0.09000
C1776       C  0.71700041  0.91602796  0.95019390    -0.13100
H1777       H  0.69659716  0.88647366  0.92059840     0.13000
H1778       H  0.78456958  0.89215879  0.90919059     0.13000
H1779       H  0.78582080  0.92817604  0.94980032     0.13000
H1780       H  0.69790068  0.92294145  0.96095263     0.13000
C1781       C  0.86405369  0.74237219  0.79989350    -0.13100
C1782       C  0.86456746  0.74308524  0.77035450    -0.14600
C1783       C  0.91324683  0.72479925  0.91854168    -0.13100
C1784       C  0.89471452  0.74680112  0.91743315     0.09000
C1785       C  0.89900273  0.76874320  0.93923326    -0.13100
C1786       C  0.92067754  0.76829947  0.96167635    -0.13100
C1787       C  0.93852379  0.74593258  0.96319224     0.09000
C1788       C  0.93468641  0.72424158  0.94126617    -0.13100
H1789       H  0.91084773  0.70773867  0.90196492     0.13000
H1790       H  0.88602698  0.78646865  0.93947829     0.13000
H1791       H  0.92318591  0.78533608  0.97826682     0.13000
H1792       H  0.92424949  0.69737420  0.48127520     0.13000
C1793       C  0.80730981  0.78601923  0.86884562    -0.13100
C1794       C  0.78884099  0.80229388  0.86823444    -0.14600
C1795       C  0.63339640  0.73223760  0.76563824    -0.13100
C1796       C  0.63242867  0.73208426  0.79519546    -0.14600
C1797       C  0.59296756  0.70902111  0.93331265    -0.13100
C1798       C  0.59922575  0.73110893  0.91246555     0.09000
C1799       C  0.58302349  0.75481330  0.91503444    -0.13100
C1800       C  0.56277850  0.75716586  0.93921333    -0.13100
C1801       C  0.55754092  0.73550005  0.96079593     0.09000
C1802       C  0.57242144  0.71122865  0.95708670    -0.13100
H1803       H  0.60356471  0.68980157  0.93166555     0.13000
H1804       H  0.58669117  0.77196399  0.89890380     0.13000
H1805       H  0.57099895  0.79002902  0.46766065     0.13000
H1806       H  0.56852606  0.69399456  0.97301262     0.13000
C1807       C  0.68191198  0.77949613  0.86904299    -0.13100
C1808       C  0.69790931  0.79822112  0.86886343    -0.14600
C1809       C  0.75681999  0.62409585  0.76697020    -0.13100
C1810       C  0.75645249  0.62384480  0.79655903    -0.14600
C1811       C  0.77849579  0.57982219  0.92693303    -0.13100
C1812       C  0.75389633  0.58929782  0.91277680     0.09000
C1813       C  0.72943272  0.57536979  0.92043186    -0.13100
C1814       C  0.72913869  0.55468550  0.94401854    -0.13100
C1815       C  0.75344023  0.54675777  0.95986946     0.09000
C1816       C  0.77822370  0.55904274  0.95039064    -0.13100
H1817       H  0.79809988  0.58842248  0.92012121     0.13000
H1818       H  0.71031591  0.58071751  0.90861249     0.13000
H1819       H  0.70978972  0.54502913  0.94998493     0.13000
H1820       H  0.79744964  0.55283834  0.96138824     0.13000
C1821       C  0.68640860  0.68805321  0.86791131    -0.13100
C1822       C  0.70485228  0.67169888  0.86820855    -0.14600
C1823       C  0.79651027  0.67732083  0.87395277    -0.13100
C1824       C  0.81314394  0.69549068  0.87471257    -0.14600
loop_ 
_geom_bond_atom_site_label_1 
_geom_bond_atom_site_label_2 
_geom_bond_distance 
_geom_bond_site_symmetry_2 
_ccdc_geom_bond_type 
C1            C2   1.546       .  S
C1            C7   1.546       .  S
C1            C5   1.540       .  S
C1          C216   1.527       .  S
C2            H9   1.083       .  S
C2            C3   1.360       .  D
C3            C4   1.530       .  S
C3          C226   1.438       .  S
C4            C8   1.530       .  S
C4            C6   1.533       .  S
C4           H10   1.112       .  S
C5           H11   1.086       .  S
C5            C6   1.364       .  D
C6          C214   1.441       .  S
C7           H12   1.086       .  S
C7            C8   1.363       .  D
C8          C227   1.441       .  S
C13          C14   1.545       .  S
C13          C19   1.546       .  S
C13          C17   1.539       .  S
C13         C202   1.526       .  S
C14          H21   1.084       .  S
C14          C15   1.362       .  D
C15          C16   1.532       .  S
C15         C211   1.440       .  S
C16          C20   1.530       .  S
C16          C18   1.532       .  S
C16          H22   1.112       .  S
C17          H23   1.086       .  S
C17          C18   1.364       .  D
C18         C200   1.440       .  S
C19          H24   1.086       .  S
C19          C20   1.362       .  D
C20         C225   1.438       .  S
C25          C26   1.548       .  S
C25          C31   1.542       .  S
C25          C29   1.542       .  S
C25         C188   1.530       .  S
C26          H33   1.082       .  S
C26          C27   1.361       .  D
C27          C28   1.532       .  S
C27         C228   1.441       .  S
C28          C32   1.533       .  S
C28          C30   1.534       .  S
C28          H34   1.112       .  S
C29          H35   1.086       .  S
C29          C30   1.365       .  D
C30         C185   1.443       .  S
C31          H36   1.087       .  S
C31          C32   1.361       .  D
C32         C197   1.441       .  S
C37          C38   1.550       .  S
C37          C43   1.544       .  S
C37          C41   1.540       .  S
C37         C176   1.529       .  S
C38          H45   1.083       .  S
C38          C39   1.364       .  D
C39          C40   1.529       .  S
C39         C198   1.441       .  S
C40          C44   1.530       .  S
C40          C42   1.532       .  S
C40          H46   1.112       .  S
C41          H47   1.086       .  S
C41          C42   1.363       .  D
C42         C173   1.440       .  S
C43          H48   1.086       .  S
C43          C44   1.362       .  D
C44         C212   1.440       .  S
C49          C50   1.544       .  S
C49          C55   1.550       .  S
C49          C53   1.541       .  S
C49         C160   1.530       .  S
C50          H57   1.086       .  S
C50          C51   1.362       .  D
C51          C52   1.530       .  S
C51         C172   1.441       .  S
C52          C56   1.529       .  S
C52          C54   1.531       .  S
C52          H58   1.112       .  S
C53          H59   1.086       .  S
C53          C54   1.364       .  D
C54         C213   1.441       .  S
C55          H60   1.083       .  S
C55          C56   1.364       .  D
C56         C169   1.440       .  S
C61          C62   1.542       .  S
C61          C67   1.546       .  S
C61          C65   1.540       .  S
C61         C148   1.524       .  S
C62          H69   1.087       .  S
C62          C63   1.359       .  D
C63          C64   1.532       .  S
C63         C170   1.439       .  S
C64          C68   1.531       .  S
C64          C66   1.533       .  S
C64          H70   1.112       .  S
C65          H71   1.086       .  S
C65          C66   1.365       .  D
C66         C199   1.440       .  S
C67          H72   1.083       .  S
C67          C68   1.361       .  D
C68         C158   1.438       .  S
C73          C74   1.543       .  S
C73          C79   1.548       .  S
C73          C77   1.542       .  S
C73         C136   1.530       .  S
C74          H81   1.086       .  S
C74          C75   1.361       .  D
C75          C76   1.531       .  S
C75         C145   1.439       .  S
C76          C80   1.531       .  S
C76          C78   1.532       .  S
C76          H82   1.112       .  S
C77          H83   1.086       .  S
C77          C78   1.365       .  D
C78         C186   1.443       .  S
C79          H84   1.083       .  S
C79          C80   1.362       .  D
C80         C171   1.442       .  S
C85          C86   1.545       .  S
C85          C91   1.548       .  S
C85          C89   1.540       .  S
C85         C126   1.528       .  S
C86          H93   1.086       .  S
C86          C87   1.362       .  D
C87          C88   1.529       .  S
C87         C157   1.438       .  S
C88          C92   1.529       .  S
C88          C90   1.532       .  S
C88          H94   1.112       .  S
C89          H95   1.086       .  S
C89          C90   1.364       .  D
C90         C174   1.440       .  S
C91          H96   1.084       .  S
C91          C92   1.362       .  D
C92         C146   1.439       .  S
O97        Cu105   2.002       .  S
O97         C107   1.278       .  A
O98       Cu1245   2.011       .  S
O98         C108   1.279       .  A
O99        Cu333   1.999       .  S
O99         C109   1.277       .  A
O100      Cu1017   2.015       .  S
O100        C110   1.279       .  A
O101      Cu1018   2.012       .  S
O101        C110   1.279       .  A
O102       Cu334   2.016   1_455  S
O102        C109   1.279       .  A
O103      Cu1246   2.011       .  S
O103        C108   1.278       .  A
O104       Cu106   2.006       .  S
O104        C107   1.278       .  A
Cu105      O1238   2.008   1_454  S
Cu105       O327   2.001   1_554  S
Cu105      O1012   1.998   1_455  S
Cu105      Cu106   2.372       .  S
Cu106      O1013   2.016   1_455  S
Cu106       O330   2.014   1_554  S
Cu106      O1243   2.003   1_454  S
C107        C151   1.476       .  S
C108        C191   1.480       .  S
C109        C205   1.480       .  S
C110        C139   1.483       .  S
O111       Cu119   2.006       .  S
O111        C121   1.278       .  A
O112       Cu803   2.013   1_545  S
O112        C122   1.279       .  A
O113       Cu347   2.013       .  S
O113        C123   1.279       .  A
O114       Cu575   2.010   1_545  S
O114        C124   1.278       .  A
O115       Cu576   2.014   1_545  S
O115        C124   1.279       .  A
O116       Cu348   2.010       .  S
O116        C123   1.278       .  A
O117       Cu804   2.002   1_545  S
O117        C122   1.277       .  A
O118       Cu120   2.015       .  S
O118        C121   1.279       .  A
Cu119       O796   2.010       .  S
Cu119       O341   2.010       .  S
Cu119       O570   2.009       .  S
Cu119      Cu120   2.371       .  S
Cu120       O571   2.008       .  S
Cu120       O344   2.003   1_554  S
Cu120       O801   2.013   1_554  S
C121        C129   1.482       .  S
C122        C219   1.479       .  S
C123        C179   1.482       .  S
C124        C163   1.482       .  S
C125        C126   1.410       .  A
C125        C130   1.398       .  A
C125        H131   1.079       .  S
C126        C127   1.409       .  A
C127        C128   1.398       .  A
C127        H132   1.083       .  S
C128        C129   1.404       .  A
C128        H133   1.083       .  S
C129        C130   1.403       .  A
C130        H134   1.083       .  S
C135        C136   1.409       .  A
C135        C140   1.399       .  A
C135        H141   1.083       .  S
C136        C137   1.411       .  A
C137        C138   1.399       .  A
C137        H142   1.078       .  S
C138        C139   1.404       .  A
C138        H143   1.083       .  S
C139        C140   1.404       .  A
C140        H144   1.083       .  S
C145        C146   1.204       .  T
C147        C148   1.410       .  A
C147        C152   1.397       .  A
C147        H153   1.078       .  S
C148        C149   1.408       .  A
C149        C150   1.395       .  A
C149        H154   1.083       .  S
C150        C151   1.403       .  A
C150        H155   1.083       .  S
C151        C152   1.403       .  A
C152        H156   1.083       .  S
C157        C158   1.203       .  T
C159        C160   1.411       .  A
C159        C164   1.400       .  A
C159        H165   1.078       .  S
C160        C161   1.409       .  A
C161        C162   1.398       .  A
C161        H166   1.083       .  S
C162        C163   1.403       .  A
C162        H167   1.083       .  S
C163        C164   1.405       .  A
C164        H168   1.083       .  S
C169        C170   1.204       .  T
C171        C172   1.205       .  T
C173        C174   1.205       .  T
C175        C176   1.410       .  A
C175        C180   1.399       .  A
C175        H181   1.083       .  S
C176        C177   1.410       .  A
C177        C178   1.398       .  A
C177        H182   1.078       .  S
C178        C179   1.404       .  A
C178        H183   1.083       .  S
C179        C180   1.404       .  A
C180        H184   1.083       .  S
C185        C186   1.207       .  T
C187        C188   1.411       .  A
C187        C192   1.397       .  A
C187        H193   1.078       .  S
C188        C189   1.409       .  A
C189        C190   1.399       .  A
C189        H194   1.083       .  S
C190        C191   1.403       .  A
C190        H195   1.084       .  S
C191        C192   1.403       .  A
C192        H424   1.083       .  S
H196        C420   1.083       .  S
C197        C198   1.205       .  T
C199        C200   1.205       .  T
C201        C202   1.407       .  A
C201        C206   1.395       .  A
C201        H207   1.082       .  S
C202        C203   1.411       .  A
C203        C204   1.399       .  A
C203        H208   1.080       .  S
C204        C205   1.404       .  A
C204        H437   1.083       .  S
C205        C206   1.404       .  A
C206        H210   1.083       .  S
H209        C432   1.083       .  S
C211        C212   1.205       .  T
C213        C214   1.205       .  T
C215        C216   1.408       .  A
C215        C220   1.397       .  A
C215        H221   1.083       .  S
C216        C217   1.411       .  A
C217        C218   1.398       .  A
C217        H222   1.079       .  S
C218        C219   1.403       .  A
C218        H223   1.083       .  S
C219        C220   1.404       .  A
C220        H224   1.083       .  S
C225        C226   1.204       .  T
C227        C228   1.205       .  T
C229        C230   1.544       .  S
C229        C235   1.548       .  S
C229        C233   1.541       .  S
C229        C444   1.528       .  S
C230        H237   1.086       .  S
C230        C231   1.363       .  D
C231        C232   1.530       .  S
C231        C454   1.440       .  S
C232        C236   1.530       .  S
C232        C234   1.532       .  S
C232        H238   1.112       .  S
C233        H239   1.086       .  S
C233        C234   1.364       .  D
C234        C442   1.442       .  S
C235        H240   1.083       .  S
C235        C236   1.362       .  D
C236        C455   1.439       .  S
C241        C242   1.543       .  S
C241        C247   1.548       .  S
C241        C245   1.540       .  S
C241        C430   1.527       .  S
C242        H249   1.087       .  S
C242        C243   1.362       .  D
C243        C244   1.532       .  S
C243        C439   1.440       .  S
C244        C248   1.532       .  S
C244        C246   1.534       .  S
C244        H250   1.112       .  S
C245        H251   1.086       .  S
C245        C246   1.364       .  D
C246        C428   1.441       .  S
C247        H252   1.083       .  S
C247        C248   1.360       .  D
C248        C453   1.440       .  S
C253        C254   1.543       .  S
C253        C259   1.547       .  S
C253        C257   1.541       .  S
C253        C416   1.527       .  S
C254        H261   1.087       .  S
C254        C255   1.360       .  D
C255        C256   1.531       .  S
C255        C456   1.439       .  S
C256        C260   1.531       .  S
C256        C258   1.533       .  S
C256        H262   1.112       .  S
C257        H263   1.086       .  S
C257        C258   1.365       .  D
C258        C413   1.443       .  S
C259        H264   1.083       .  S
C259        C260   1.362       .  D
C260        C425   1.440       .  S
C265        C266   1.543       .  S
C265        C271   1.547       .  S
C265        C269   1.540       .  S
C265        C404   1.526       .  S
C266        H273   1.086       .  S
C266        C267   1.362       .  D
C267        C268   1.531       .  S
C267        C426   1.440       .  S
C268        C272   1.531       .  S
C268        C270   1.534       .  S
C268        H274   1.112       .  S
C269        H275   1.086       .  S
C269        C270   1.363       .  D
C270        C401   1.441       .  S
C271        H276   1.083       .  S
C271        C272   1.362       .  D
C272        C440   1.440       .  S
C277        C278   1.550       .  S
C277        C283   1.543       .  S
C277        C281   1.542       .  S
C277        C388   1.532       .  S
C278        H285   1.083       .  S
C278        C279   1.362       .  D
C279        C280   1.529       .  S
C279        C400   1.441       .  S
C280        C284   1.530       .  S
C280        C282   1.533       .  S
C280        H286   1.112       .  S
C281        H287   1.086       .  S
C281        C282   1.366       .  D
C282        C441   1.443       .  S
C283        H288   1.087       .  S
C283        C284   1.362       .  D
C284        C397   1.439       .  S
C289        C290   1.549       .  S
C289        C295   1.541       .  S
C289        C293   1.544       .  S
C289        C376   1.529       .  S
C290        H297   1.082       .  S
C290        C291   1.361       .  D
C291        C292   1.529       .  S
C291        C398   1.440       .  S
C292        C296   1.531       .  S
C292        C294   1.530       .  S
C292        H298   1.112       .  S
C293        H299   1.086       .  S
C293        C294   1.366       .  D
C294        C427   1.441       .  S
C295        H300   1.087       .  S
C295        C296   1.360       .  D
C296        C386   1.438       .  S
C301        C302   1.547       .  S
C301        C307   1.543       .  S
C301        C305   1.543       .  S
C301        C364   1.530       .  S
C302        H309   1.081       .  S
C302        C303   1.360       .  D
C303        C304   1.530       .  S
C303        C373   1.438       .  S
C304        C308   1.531       .  S
C304        C306   1.533       .  S
C304        H310   1.112       .  S
C305        H311   1.086       .  S
C305        C306   1.366       .  D
C306        C414   1.443       .  S
C307        H312   1.086       .  S
C307        C308   1.362       .  D
C308        C399   1.440       .  S
C313        C314   1.549       .  S
C313        C319   1.544       .  S
C313        C317   1.543       .  S
C313        C354   1.531       .  S
C314        H321   1.083       .  S
C314        C315   1.362       .  D
C315        C316   1.527       .  S
C315        C385   1.438       .  S
C316        C320   1.527       .  S
C316        C318   1.530       .  S
C316        H322   1.112       .  S
C317        H323   1.086       .  S
C317        C318   1.366       .  D
C318        C402   1.441       .  S
C319        H324   1.086       .  S
C319        C320   1.363       .  D
C320        C374   1.437       .  S
O325       Cu333   2.000       .  S
O325        C335   1.278       .  A
O326      Cu1017   2.003   1_556  S
O326        C336   1.278       .  A
O327        C337   1.277       .  A
O328      Cu1245   2.009       .  S
O328        C338   1.278       .  A
O329      Cu1246   2.013       .  S
O329        C338   1.279       .  A
O330        C337   1.279       .  A
O331      Cu1018   2.008       .  S
O331        C336   1.278   1_554  A
O332       Cu334   2.016   1_455  S
O332        C335   1.279       .  A
Cu333      O1010   2.001   1_455  S
Cu333      O1240   2.006   1_455  S
Cu333      Cu334   2.372   1_455  S
Cu334      O1241   2.006       .  S
Cu334      O1015   2.016       .  S
C335        C379   1.479       .  S
C336        C419   1.478       .  S
C337        C433   1.478       .  S
C338        C367   1.480       .  S
O339       Cu347   2.010       .  S
O339        C349   1.279       .  A
O340       Cu575   2.010   1_546  S
O340        C350   1.278       .  A
O341        C351   1.279   1_554  A
O342       Cu803   2.020   1_545  S
O342        C352   1.280       .  A
O343       Cu804   2.008   1_545  S
O343        C352   1.278       .  A
O344        C351   1.277       .  A
O345       Cu576   2.005   1_546  S
O345        C350   1.278       .  A
O346       Cu348   2.016       .  S
O346        C349   1.279       .  A
Cu347       O568   2.005       .  S
Cu347       O798   2.018       .  S
Cu347      Cu348   2.370       .  S
Cu348       O799   2.009       .  S
Cu348       O573   2.018       .  S
C349        C357   1.483       .  S
C350        C447   1.480       .  S
C351        C407   1.479       .  S
C352        C391   1.483       .  S
C353        C354   1.410       .  A
C353        C358   1.400       .  A
C353        H359   1.083       .  S
C354        C355   1.411       .  A
C355        C356   1.398       .  A
C355        H360   1.079       .  S
C356        C357   1.404       .  A
C356        H361   1.083       .  S
C357        C358   1.404       .  A
C358        H362   1.083       .  S
C363        C364   1.412       .  A
C363        C368   1.397       .  A
C363        H369   1.076       .  S
C364        C365   1.409       .  A
C365        C366   1.399       .  A
C365        H370   1.083       .  S
C366        C367   1.404       .  A
C366        H371   1.083       .  S
C367        C368   1.402       .  A
C368        H372   1.083       .  S
C373        C374   1.203       .  T
C375        C376   1.410       .  A
C375        C380   1.400       .  A
C375        H381   1.083       .  S
C376        C377   1.410       .  A
C377        C378   1.395       .  A
C377        H382   1.077       .  S
C378        C379   1.402       .  A
C378        H383   1.084       .  S
C379        C380   1.403       .  A
C380        H384   1.083       .  S
C385        C386   1.203       .  T
C387        C388   1.410       .  A
C387        C392   1.401       .  A
C387        H393   1.083       .  S
C388        C389   1.410       .  A
C389        C390   1.397       .  A
C389        H394   1.078       .  S
C390        C391   1.404       .  A
C390        H395   1.083       .  S
C391        C392   1.404       .  A
C392        H396   1.083       .  S
C397        C398   1.204       .  T
C399        C400   1.205       .  T
C401        C402   1.206       .  T
C403        C404   1.411       .  A
C403        C408   1.397       .  A
C403        H409   1.077       .  S
C404        C405   1.408       .  A
C405        C406   1.397       .  A
C405        H410   1.083       .  S
C406        C407   1.404       .  A
C406        H411   1.082       .  S
C407        C408   1.403       .  A
C408        H412   1.084       .  S
C413        C414   1.207       .  T
C415        C416   1.408       .  A
C415        C420   1.396       .  A
C415        H421   1.083       .  S
C416        C417   1.411       .  A
C417        C418   1.398       .  A
C417        H422   1.078       .  S
C418        C419   1.403       .  A
C418        H423   1.083       .  S
C419        C420   1.403       .  A
C425        C426   1.205       .  T
C427        C428   1.206       .  T
C429        C430   1.410       .  A
C429        C434   1.395       .  A
C429        H435   1.078       .  S
C430        C431   1.410       .  A
C431        C432   1.399       .  A
C431        H436   1.083       .  S
C432        C433   1.403       .  A
C433        C434   1.402       .  A
C434        H438   1.083       .  S
C439        C440   1.205       .  T
C441        C442   1.206       .  T
C443        C444   1.410       .  A
C443        C448   1.397       .  A
C443        H449   1.078       .  S
C444        C445   1.409       .  A
C445        C446   1.398       .  A
C445        H450   1.083       .  S
C446        C447   1.403       .  A
C446        H451   1.083       .  S
C447        C448   1.403       .  A
C448        H452   1.083       .  S
C453        C454   1.205       .  T
C455        C456   1.204       .  T
C457        C458   1.546       .  S
C457        C463   1.546       .  S
C457        C461   1.541       .  S
C457        C672   1.529       .  S
C458        H465   1.086       .  S
C458        C459   1.363       .  D
C459        C460   1.529       .  S
C459        C682   1.440       .  S
C460        C464   1.530       .  S
C460        C462   1.532       .  S
C460        H466   1.112       .  S
C461        H467   1.086       .  S
C461        C462   1.365       .  D
C462        C670   1.441       .  S
C463        H468   1.084       .  S
C463        C464   1.361       .  D
C464        C683   1.438       .  S
C469        C470   1.542       .  S
C469        C475   1.548       .  S
C469        C473   1.542       .  S
C469        C658   1.529       .  S
C470        H477   1.087       .  S
C470        C471   1.362       .  D
C471        C472   1.531       .  S
C471        C667   1.440       .  S
C472        C476   1.531       .  S
C472        C474   1.533       .  S
C472        H478   1.112       .  S
C473        H479   1.086       .  S
C473        C474   1.365       .  D
C474        C656   1.442       .  S
C475        H480   1.081       .  S
C475        C476   1.361       .  D
C476        C681   1.440       .  S
C481        C482   1.545       .  S
C481        C487   1.545       .  S
C481        C485   1.540       .  S
C481        C644   1.526       .  S
C482        H489   1.086       .  S
C482        C483   1.362       .  D
C483        C484   1.530       .  S
C483        C684   1.438       .  S
C484        C488   1.532       .  S
C484        C486   1.532       .  S
C484        H490   1.112       .  S
C485        H491   1.086       .  S
C485        C486   1.364       .  D
C486        C641   1.441       .  S
C487        H492   1.084       .  S
C487        C488   1.361       .  D
C488        C653   1.440       .  S
C493        C494   1.545       .  S
C493        C499   1.547       .  S
C493        C497   1.539       .  S
C493        C632   1.526       .  S
C494        H501   1.086       .  S
C494        C495   1.363       .  D
C495        C496   1.530       .  S
C495        C654   1.440       .  S
C496        C500   1.531       .  S
C496        C498   1.533       .  S
C496        H502   1.112       .  S
C497        H503   1.086       .  S
C497        C498   1.362       .  D
C498        C629   1.440       .  S
C499        H504   1.084       .  S
C499        C500   1.362       .  D
C500        C668   1.440       .  S
C505        C506   1.549       .  S
C505        C511   1.544       .  S
C505        C509   1.540       .  S
C505        C616   1.527       .  S
C506        H513   1.084       .  S
C506        C507   1.363       .  D
C507        C508   1.531       .  S
C507        C628   1.442       .  S
C508        C512   1.530       .  S
C508        C510   1.532       .  S
C508        H514   1.112       .  S
C509        H515   1.086       .  S
C509        C510   1.363       .  D
C510        C669   1.441       .  S
C511        H516   1.086       .  S
C511        C512   1.362       .  D
C512        C625   1.439       .  S
C517        C518   1.548       .  S
C517        C523   1.542       .  S
C517        C521   1.543       .  S
C517        C604   1.528       .  S
C518        H525   1.082       .  S
C518        C519   1.361       .  D
C519        C520   1.530       .  S
C519        C626   1.439       .  S
C520        C524   1.530       .  S
C520        C522   1.532       .  S
C520        H526   1.112       .  S
C521        H527   1.086       .  S
C521        C522   1.366       .  D
C522        C655   1.442       .  S
C523        H528   1.086       .  S
C523        C524   1.361       .  D
C524        C614   1.436       .  S
C529        C530   1.547       .  S
C529        C535   1.543       .  S
C529        C533   1.542       .  S
C529        C592   1.528       .  S
C530        H537   1.081       .  S
C530        C531   1.361       .  D
C531        C532   1.530       .  S
C531        C601   1.438       .  S
C532        C536   1.532       .  S
C532        C534   1.532       .  S
C532        H538   1.112       .  S
C533        H539   1.086       .  S
C533        C534   1.364       .  D
C534        C642   1.441       .  S
C535        H540   1.087       .  S
C535        C536   1.362       .  D
C536        C627   1.442       .  S
C541        C542   1.547       .  S
C541        C547   1.544       .  S
C541        C545   1.542       .  S
C541        C582   1.529       .  S
C542        H549   1.083       .  S
C542        C543   1.360       .  D
C543        C544   1.528       .  S
C543        C613   1.436       .  S
C544        C548   1.528       .  S
C544        C546   1.531       .  S
C544        H550   1.112       .  S
C545        H551   1.086       .  S
C545        C546   1.366       .  D
C546        C630   1.440       .  S
C547        H552   1.086       .  S
C547        C548   1.362       .  D
C548        C602   1.437       .  S
O553       Cu561   2.007       .  S
O553        C563   1.278       .  A
O554      Cu1701   1.993       .  S
O554        C564   1.276       .  A
O555       Cu789   2.011   1_455  S
O555        C565   1.279       .  A
O556      Cu1473   2.003       .  S
O556        C566   1.277       .  A
O557      Cu1474   2.015       .  S
O557        C566   1.279       .  A
O558       Cu790   2.007       .  S
O558        C565   1.278       .  A
O559      Cu1702   2.021       .  S
O559        C564   1.280       .  A
O560       Cu562   2.008   1_455  S
O560        C563   1.278       .  A
Cu561      O1694   2.003   1_454  S
Cu561       O783   2.002   1_554  S
Cu561      O1468   2.010   1_455  S
Cu561      Cu562   2.372   1_455  S
Cu562      O1469   2.012       .  S
Cu562       O786   2.020   1_654  S
Cu562      O1699   2.019       .  S
C563        C607   1.479       .  S
C564        C647   1.480       .  S
C565        C661   1.477       .  S
C566        C595   1.478       .  S
O567       Cu575   2.016       .  S
O567        C577   1.280       .  A
O568        C578   1.277       .  A
O569       Cu803   2.018       .  S
O569        C579   1.280       .  A
O570        C580   1.278       .  A
O571        C580   1.278       .  A
O572       Cu804   1.998       .  S
O572        C579   1.277       .  A
O573        C578   1.280       .  A
O574       Cu576   2.004       .  S
O574        C577   1.277       .  A
Cu575       O797   2.007   1_554  S
Cu575      Cu576   2.370       .  S
Cu576       O800   2.022   1_554  S
C577        C585   1.481       .  S
C578        C675   1.483       .  S
C579        C635   1.480       .  S
C580        C619   1.481       .  S
C581        C582   1.408       .  A
C581        C586   1.398       .  A
C581        H587   1.083       .  S
C582        C583   1.411       .  A
C583        C584   1.397       .  A
C583        H588   1.078       .  S
C584        C585   1.402       .  A
C584        H589   1.083       .  S
C585        C586   1.405       .  A
C586        H590   1.083       .  S
C591        C592   1.412       .  A
C591        C596   1.398       .  A
C591        H597   1.075       .  S
C592        C593   1.408       .  A
C593        C594   1.397       .  A
C593        H598   1.083       .  S
C594        C595   1.403       .  A
C594        H599   1.083       .  S
C595        C596   1.402       .  A
C596        H600   1.083       .  S
C601        C602   1.203       .  T
C603        C604   1.409       .  A
C603        C608   1.398       .  A
C603        H609   1.083       .  S
C604        C605   1.411       .  A
C605        C606   1.396       .  A
C605        H610   1.076       .  S
C606        C607   1.402       .  A
C606        H611   1.084       .  S
C607        C608   1.404       .  A
C608        H612   1.083       .  S
C613        C614   1.202       .  T
C615        C616   1.409       .  A
C615        C620   1.398       .  A
C615        H621   1.082       .  S
C616        C617   1.409       .  A
C617        C618   1.397       .  A
C617        H622   1.079       .  S
C618        C619   1.404       .  A
C618        H623   1.083       .  S
C619        C620   1.404       .  A
C620        H624   1.083       .  S
C625        C626   1.204       .  T
C627        C628   1.206       .  T
C629        C630   1.205       .  T
C631        C632   1.411       .  A
C631        C636   1.399       .  A
C631        H637   1.079       .  S
C632        C633   1.407       .  A
C633        C634   1.396       .  A
C633        H638   1.083       .  S
C634        C635   1.404       .  A
C634        H639   1.083       .  S
C635        C636   1.403       .  A
C636        H640   1.083       .  S
C641        C642   1.205       .  T
C643        C644   1.407       .  A
C643        C648   1.395       .  A
C643        H649   1.083       .  S
C644        C645   1.411       .  A
C645        C646   1.399       .  A
C645        H650   1.080       .  S
C646        C647   1.403       .  A
C646        H651   1.083       .  S
C647        C648   1.404       .  A
C648        H880   1.083       .  S
H652        C876   1.083       .  S
C653        C654   1.205       .  T
C655        C656   1.206       .  T
C657        C658   1.412       .  A
C657        C662   1.397       .  A
C657        H663   1.076       .  S
C658        C659   1.409       .  A
C659        C660   1.398       .  A
C659        H664   1.083       .  S
C660        C661   1.403       .  A
C660        H893   1.083       .  S
C661        C662   1.402       .  A
C662        H666   1.083       .  S
H665        C888   1.083       .  S
C667        C668   1.205       .  T
C669        C670   1.205       .  T
C671        C672   1.411       .  A
C671        C676   1.398       .  A
C671        H677   1.080       .  S
C672        C673   1.409       .  A
C673        C674   1.398       .  A
C673        H678   1.082       .  S
C674        C675   1.405       .  A
C674        H679   1.083       .  S
C675        C676   1.403       .  A
C676        H680   1.083       .  S
C681        C682   1.205       .  T
C683        C684   1.204       .  T
C685        C686   1.549       .  S
C685        C691   1.545       .  S
C685        C689   1.541       .  S
C685        C900   1.531       .  S
C686        H693   1.083       .  S
C686        C687   1.363       .  D
C687        C688   1.533       .  S
C687        C910   1.445       .  S
C688        C692   1.532       .  S
C688        C690   1.534       .  S
C688        H694   1.112       .  S
C689        H695   1.086       .  S
C689        C690   1.364       .  D
C690        C898   1.443       .  S
C691        H696   1.086       .  S
C691        C692   1.363       .  D
C692        C911   1.442       .  S
C697        C698   1.547       .  S
C697        C703   1.545       .  S
C697        C701   1.541       .  S
C697        C886   1.529       .  S
C698        H705   1.081       .  S
C698        C699   1.361       .  D
C699        C700   1.530       .  S
C699        C895   1.438       .  S
C700        C704   1.532       .  S
C700        C702   1.533       .  S
C700        H706   1.112       .  S
C701        H707   1.086       .  S
C701        C702   1.364       .  D
C702        C884   1.440       .  S
C703        H708   1.086       .  S
C703        C704   1.364       .  D
C704        C909   1.445       .  S
C709        C710   1.548       .  S
C709        C715   1.543       .  S
C709        C713   1.543       .  S
C709        C872   1.530       .  S
C710        H717   1.083       .  S
C710        C711   1.362       .  D
C711        C712   1.532       .  S
C711        C912   1.443       .  S
C712        C716   1.529       .  S
C712        C714   1.532       .  S
C712        H718   1.112       .  S
C713        H719   1.086       .  S
C713        C714   1.366       .  D
C714        C869   1.444       .  S
C715        H720   1.087       .  S
C715        C716   1.360       .  D
C716        C881   1.437       .  S
C721        C722   1.546       .  S
C721        C727   1.546       .  S
C721        C725   1.542       .  S
C721        C860   1.530       .  S
C722        H729   1.084       .  S
C722        C723   1.361       .  D
C723        C724   1.529       .  S
C723        C882   1.437       .  S
C724        C728   1.527       .  S
C724        C726   1.532       .  S
C724        H730   1.112       .  S
C725        H731   1.086       .  S
C725        C726   1.366       .  D
C726        C857   1.442       .  S
C727        H732   1.086       .  S
C727        C728   1.362       .  D
C728        C896   1.437       .  S
C733        C734   1.545       .  S
C733        C739   1.547       .  S
C733        C737   1.543       .  S
C733        C844   1.532       .  S
C734        H741   1.086       .  S
C734        C735   1.363       .  D
C735        C736   1.531       .  S
C735        C856   1.442       .  S
C736        C740   1.527       .  S
C736        C738   1.531       .  S
C736        H742   1.112       .  S
C737        H743   1.086       .  S
C737        C738   1.366       .  D
C738        C897   1.443       .  S
C739        H744   1.083       .  S
C739        C740   1.361       .  D
C740        C853   1.435       .  S
C745        C746   1.546       .  S
C745        C751   1.542       .  S
C745        C749   1.540       .  S
C745        C832   1.521       .  S
C746        H753   1.083       .  S
C746        C747   1.359       .  D
C747        C748   1.528       .  S
C747        C854   1.435       .  S
C748        C752   1.530       .  S
C748        C750   1.531       .  S
C748        H754   1.112       .  S
C749        H755   1.086       .  S
C749        C750   1.364       .  D
C750        C883   1.440       .  S
C751        H756   1.086       .  S
C751        C752   1.361       .  D
C752        C842   1.435       .  S
C757        C758   1.542       .  S
C757        C763   1.548       .  S
C757        C761   1.541       .  S
C757        C820   1.528       .  S
C758        H765   1.086       .  S
C758        C759   1.360       .  D
C759        C760   1.533       .  S
C759        C829   1.440       .  S
C760        C764   1.532       .  S
C760        C762   1.534       .  S
C760        H766   1.112       .  S
C761        H767   1.086       .  S
C761        C762   1.365       .  D
C762        C870   1.444       .  S
C763        H768   1.084       .  S
C763        C764   1.362       .  D
C764        C855   1.442       .  S
C769        C770   1.542       .  S
C769        C775   1.549       .  S
C769        C773   1.540       .  S
C769        C810   1.525       .  S
C770        H777   1.087       .  S
C770        C771   1.360       .  D
C771        C772   1.530       .  S
C771        C841   1.436       .  S
C772        C776   1.529       .  S
C772        C774   1.532       .  S
C772        H778   1.112       .  S
C773        H779   1.086       .  S
C773        C774   1.363       .  D
C774        C858   1.441       .  S
C775        H780   1.083       .  S
C775        C776   1.363       .  D
C776        C830   1.440       .  S
O781       Cu789   1.981   1_455  S
O781        C791   1.275       .  A
O782      Cu1473   2.009       .  S
O782        C792   1.278   1_554  A
O783        C793   1.277       .  A
O784      Cu1701   2.009       .  S
O784        C794   1.279       .  A
O785      Cu1702   2.010       .  S
O785        C794   1.278       .  A
O786        C793   1.280       .  A
O787      Cu1474   2.013   1_556  S
O787        C792   1.279       .  A
O788       Cu790   2.013       .  S
O788        C791   1.279       .  A
Cu789      O1466   1.990       .  S
Cu789      O1696   2.009       .  S
Cu789      Cu790   2.373   1_655  S
Cu790      O1697   2.008   1_455  S
Cu790      O1471   2.010   1_455  S
C791        C835   1.472       .  S
C792        C875   1.482       .  S
C793        C889   1.478       .  S
C794        C823   1.481       .  S
O795       Cu803   2.005       .  S
O795        C805   1.278       .  A
O796        C806   1.279   1_554  A
O797        C807   1.278       .  A
O798        C808   1.280       .  A
O799        C808   1.278       .  A
O800        C807   1.280       .  A
O801        C806   1.279       .  A
O802       Cu804   2.004       .  S
O802        C805   1.278       .  A
Cu803      Cu804   2.371       .  S
C805        C813   1.478       .  S
C806        C903   1.483       .  S
C807        C863   1.485       .  S
C808        C847   1.483       .  S
C809        C810   1.409       .  A
C809        C814   1.397       .  A
C809        H815   1.079       .  S
C810        C811   1.409       .  A
C811        C812   1.396       .  A
C811        H816   1.083       .  S
C812        C813   1.403       .  A
C812        H817   1.083       .  S
C813        C814   1.404       .  A
C814        H818   1.083       .  S
C819        C820   1.410       .  A
C819        C824   1.399       .  A
C819        H825   1.083       .  S
C820        C821   1.409       .  A
C821        C822   1.397       .  A
C821        H826   1.080       .  S
C822        C823   1.404       .  A
C822        H827   1.083       .  S
C823        C824   1.404       .  A
C824        H828   1.083       .  S
C829        C830   1.204       .  T
C831        C832   1.409       .  A
C831        C836   1.396       .  A
C831        H837   1.083       .  S
C832        C833   1.408       .  A
C833        C834   1.392       .  A
C833        H838   1.078       .  S
C834        C835   1.402       .  A
C834        H839   1.084       .  S
C835        C836   1.402       .  A
C836        H840   1.083       .  S
C841        C842   1.202       .  T
C843        C844   1.412       .  A
C843        C848   1.399       .  A
C843        H849   1.078       .  S
C844        C845   1.409       .  A
C845        C846   1.399       .  A
C845        H850   1.083       .  S
C846        C847   1.405       .  A
C846        H851   1.083       .  S
C847        C848   1.403       .  A
C848        H852   1.083       .  S
C853        C854   1.201       .  T
C855        C856   1.206       .  T
C857        C858   1.206       .  T
C859        C860   1.408       .  A
C859        C864   1.398       .  A
C859        H865   1.083       .  S
C860        C861   1.411       .  A
C861        C862   1.400       .  A
C861        H866   1.079       .  S
C862        C863   1.404       .  A
C862        H867   1.083       .  S
C863        C864   1.405       .  A
C864        H868   1.083       .  S
C869        C870   1.207       .  T
C871        C872   1.410       .  A
C871        C876   1.398       .  A
C871        H877   1.079       .  S
C872        C873   1.410       .  A
C873        C874   1.399       .  A
C873        H878   1.083       .  S
C874        C875   1.404       .  A
C874        H879   1.083       .  S
C875        C876   1.404       .  A
C881        C882   1.203       .  T
C883        C884   1.205       .  T
C885        C886   1.408       .  A
C885        C890   1.397       .  A
C885        H891   1.083       .  S
C886        C887   1.413       .  A
C887        C888   1.399       .  A
C887        H892   1.076       .  S
C888        C889   1.402       .  A
C889        C890   1.403       .  A
C890        H894   1.083       .  S
C895        C896   1.203       .  T
C897        C898   1.207       .  T
C899        C900   1.410       .  A
C899        C904   1.399       .  A
C899        H905   1.083       .  S
C900        C901   1.410       .  A
C901        C902   1.398       .  A
C901        H906   1.078       .  S
C902        C903   1.404       .  A
C902        H907   1.083       .  S
C903        C904   1.404       .  A
C904        H908   1.083       .  S
C909        C910   1.208       .  T
C911        C912   1.206       .  T
C913        C914   1.543       .  S
C913        C919   1.547       .  S
C913        C917   1.541       .  S
C913       C1128   1.530       .  S
C914        H921   1.086       .  S
C914        C915   1.362       .  D
C915        C916   1.532       .  S
C915       C1138   1.440       .  S
C916        C920   1.532       .  S
C916        C918   1.534       .  S
C916        H922   1.112       .  S
C917        H923   1.086       .  S
C917        C918   1.365       .  D
C918       C1126   1.444       .  S
C919        H924   1.083       .  S
C919        C920   1.361       .  D
C920       C1139   1.441       .  S
C925        C926   1.543       .  S
C925        C931   1.549       .  S
C925        C929   1.544       .  S
C925       C1114   1.531       .  S
C926        H933   1.087       .  S
C926        C927   1.362       .  D
C927        C928   1.530       .  S
C927       C1123   1.439       .  S
C928        C932   1.529       .  S
C928        C930   1.531       .  S
C928        H934   1.112       .  S
C929        H935   1.086       .  S
C929        C930   1.366       .  D
C930       C1112   1.442       .  S
C931        H936   1.083       .  S
C931        C932   1.361       .  D
C932       C1137   1.440       .  S
C937        C938   1.544       .  S
C937        C943   1.546       .  S
C937        C941   1.544       .  S
C937       C1100   1.530       .  S
C938        H945   1.086       .  S
C938        C939   1.364       .  D
C939        C940   1.530       .  S
C939       C1140   1.441       .  S
C940        C944   1.530       .  S
C940        C942   1.532       .  S
C940        H946   1.112       .  S
C941        H947   1.086       .  S
C941        C942   1.365       .  D
C942       C1097   1.442       .  S
C943        H948   1.082       .  S
C943        C944   1.359       .  D
C944       C1109   1.438       .  S
C949        C950   1.546       .  S
C949        C955   1.546       .  S
C949        C953   1.541       .  S
C949       C1088   1.529       .  S
C950        H957   1.086       .  S
C950        C951   1.363       .  D
C951        C952   1.528       .  S
C951       C1110   1.438       .  S
C952        C956   1.530       .  S
C952        C954   1.531       .  S
C952        H958   1.112       .  S
C953        H959   1.086       .  S
C953        C954   1.365       .  D
C954       C1085   1.442       .  S
C955        H960   1.085       .  S
C955        C956   1.362       .  D
C956       C1124   1.439       .  S
C961        C962   1.551       .  S
C961        C967   1.544       .  S
C961        C965   1.544       .  S
C961       C1072   1.534       .  S
C962        H969   1.083       .  S
C962        C963   1.364       .  D
C963        C964   1.529       .  S
C963       C1084   1.443       .  S
C964        C968   1.529       .  S
C964        C966   1.531       .  S
C964        H970   1.112       .  S
C965        H971   1.086       .  S
C965        C966   1.366       .  D
C966       C1125   1.443       .  S
C967        H972   1.086       .  S
C967        C968   1.363       .  D
C968       C1081   1.440       .  S
C973        C974   1.547       .  S
C973        C979   1.544       .  S
C973        C977   1.540       .  S
C973       C1060   1.527       .  S
C974        H981   1.082       .  S
C974        C975   1.361       .  D
C975        C976   1.532       .  S
C975       C1082   1.440       .  S
C976        C980   1.532       .  S
C976        C978   1.534       .  S
C976        H982   1.112       .  S
C977        H983   1.086       .  S
C977        C978   1.363       .  D
C978       C1111   1.442       .  S
C979        H984   1.086       .  S
C979        C980   1.363       .  D
C980       C1070   1.442       .  S
C985        C986   1.546       .  S
C985        C991   1.544       .  S
C985        C989   1.541       .  S
C985       C1048   1.528       .  S
C986        H993   1.083       .  S
C986        C987   1.361       .  D
C987        C988   1.531       .  S
C987       C1057   1.441       .  S
C988        C992   1.533       .  S
C988        C990   1.534       .  S
C988        H994   1.112       .  S
C989        H995   1.086       .  S
C989        C990   1.365       .  D
C990       C1098   1.442       .  S
C991        H996   1.086       .  S
C991        C992   1.362       .  D
C992       C1083   1.443       .  S
C997        C998   1.547       .  S
C997       C1003   1.547       .  S
C997       C1001   1.540       .  S
C997       C1038   1.531       .  S
C998       H1005   1.085       .  S
C998        C999   1.363       .  D
C999       C1000   1.532       .  S
C999       C1069   1.442       .  S
C1000      C1004   1.530       .  S
C1000      C1002   1.533       .  S
C1000      H1006   1.112       .  S
C1001      H1007   1.086       .  S
C1001      C1002   1.365       .  D
C1002      C1086   1.442       .  S
C1003      H1008   1.085       .  S
C1003      C1004   1.363       .  D
C1004      C1058   1.441       .  S
O1009     Cu1017   2.011       .  S
O1009      C1019   1.279       .  A
O1010      C1020   1.277       .  A
O1011     Cu1245   2.014       .  S
O1011      C1021   1.279       .  A
O1012      C1022   1.277       .  A
O1013      C1022   1.280       .  A
O1014     Cu1246   2.009       .  S
O1014      C1021   1.278       .  A
O1015      C1020   1.280       .  A
O1016     Cu1018   2.003       .  S
O1016      C1019   1.277       .  A
Cu1017     O1239   2.009   1_554  S
Cu1017    Cu1018   2.371       .  S
Cu1018     O1242   2.016       .  S
C1019      C1063   1.478       .  S
C1020      C1103   1.478       .  S
C1021      C1117   1.481       .  S
C1022      C1051   1.479       .  S
O1023     Cu1031   2.018       .  S
O1023      C1033   1.280       .  A
O1024     Cu1715   2.011   1_545  S
O1024      C1034   1.278       .  A
O1025     Cu1259   2.020       .  S
O1025      C1035   1.280       .  A
O1026     Cu1487   2.021   1_545  S
O1026      C1036   1.279       .  A
O1027     Cu1488   2.012   1_545  S
O1027      C1036   1.279       .  A
O1028     Cu1260   2.006       .  S
O1028      C1035   1.278       .  A
O1029     Cu1716   2.015   1_545  S
O1029      C1034   1.279       .  A
O1030     Cu1032   2.012       .  S
O1030      C1033   1.279       .  A
Cu1031     O1708   2.009   1_554  S
Cu1031     O1253   2.004   1_554  S
Cu1031     O1482   2.006       .  S
Cu1031    Cu1032   2.371       .  S
Cu1032     O1483   2.012       .  S
Cu1032     O1256   2.007   1_554  S
Cu1032     O1713   2.015   1_554  S
C1033      C1041   1.486       .  S
C1034      C1131   1.483       .  S
C1035      C1091   1.484       .  S
C1036      C1075   1.486       .  S
C1037      C1038   1.410       .  A
C1037      C1042   1.400       .  A
C1037      H1043   1.081       .  S
C1038      C1039   1.410       .  A
C1039      C1040   1.399       .  A
C1039      H1044   1.081       .  S
C1040      C1041   1.405       .  A
C1040      H1045   1.083       .  S
C1041      C1042   1.405       .  A
C1042      H1046   1.083       .  S
C1047      C1048   1.411       .  A
C1047      C1052   1.398       .  A
C1047      H1053   1.078       .  S
C1048      C1049   1.408       .  A
C1049      C1050   1.397       .  A
C1049      H1054   1.083       .  S
C1050      C1051   1.404       .  A
C1050      H1055   1.083       .  S
C1051      C1052   1.402       .  A
C1052      H1056   1.083       .  S
C1057      C1058   1.205       .  T
C1059      C1060   1.408       .  A
C1059      C1064   1.397       .  A
C1059      H1065   1.083       .  S
C1060      C1061   1.411       .  A
C1061      C1062   1.397       .  A
C1061      H1066   1.077       .  S
C1062      C1063   1.402       .  A
C1062      H1067   1.083       .  S
C1063      C1064   1.403       .  A
C1064      H1068   1.083       .  S
C1069      C1070   1.206       .  T
C1071      C1072   1.411       .  A
C1071      C1076   1.402       .  A
C1071      H1077   1.083       .  S
C1072      C1073   1.411       .  A
C1073      C1074   1.399       .  A
C1073      H1078   1.078       .  S
C1074      C1075   1.404       .  A
C1074      H1079   1.083       .  S
C1075      C1076   1.404       .  A
C1076      H1080   1.083       .  S
C1081      C1082   1.205       .  T
C1083      C1084   1.206       .  T
C1085      C1086   1.206       .  T
C1087      C1088   1.411       .  A
C1087      C1092   1.399       .  A
C1087      H1093   1.080       .  S
C1088      C1089   1.408       .  A
C1089      C1090   1.398       .  A
C1089      H1094   1.082       .  S
C1090      C1091   1.405       .  A
C1090      H1095   1.083       .  S
C1091      C1092   1.404       .  A
C1092      H1096   1.083       .  S
C1097      C1098   1.206       .  T
C1099      C1100   1.408       .  A
C1099      C1104   1.398       .  A
C1099      H1105   1.083       .  S
C1100      C1101   1.413       .  A
C1101      C1102   1.397       .  A
C1101      H1106   1.076       .  S
C1102      C1103   1.401       .  A
C1102      H1107   1.083       .  S
C1103      C1104   1.404       .  A
C1104      H1336   1.083       .  S
H1108      C1332   1.083       .  S
C1109      C1110   1.203       .  T
C1111      C1112   1.206       .  T
C1113      C1114   1.411       .  A
C1113      C1118   1.397       .  A
C1113      H1119   1.079       .  S
C1114      C1115   1.409       .  A
C1115      C1116   1.399       .  A
C1115      H1120   1.083       .  S
C1116      C1117   1.404       .  A
C1116      H1349   1.084       .  S
C1117      C1118   1.403       .  A
C1118      H1122   1.083       .  S
H1121      C1344   1.083       .  S
C1123      C1124   1.204       .  T
C1125      C1126   1.207       .  T
C1127      C1128   1.411       .  A
C1127      C1132   1.398       .  A
C1127      H1133   1.078       .  S
C1128      C1129   1.409       .  A
C1129      C1130   1.400       .  A
C1129      H1134   1.083       .  S
C1130      C1131   1.405       .  A
C1130      H1135   1.083       .  S
C1131      C1132   1.403       .  A
C1132      H1136   1.083       .  S
C1137      C1138   1.205       .  T
C1139      C1140   1.205       .  T
C1141      C1142   1.550       .  S
C1141      C1147   1.545       .  S
C1141      C1145   1.544       .  S
C1141      C1356   1.536       .  S
C1142      H1149   1.083       .  S
C1142      C1143   1.364       .  D
C1143      C1144   1.529       .  S
C1143      C1366   1.443       .  S
C1144      C1148   1.531       .  S
C1144      C1146   1.532       .  S
C1144      H1150   1.112       .  S
C1145      H1151   1.086       .  S
C1145      C1146   1.367       .  D
C1146      C1354   1.446       .  S
C1147      H1152   1.086       .  S
C1147      C1148   1.363       .  D
C1148      C1367   1.441       .  S
C1153      C1154   1.547       .  S
C1153      C1159   1.542       .  S
C1153      C1157   1.544       .  S
C1153      C1342   1.532       .  S
C1154      H1161   1.083       .  S
C1154      C1155   1.359       .  D
C1155      C1156   1.531       .  S
C1155      C1351   1.439       .  S
C1156      C1160   1.533       .  S
C1156      C1158   1.534       .  S
C1156      H1162   1.112       .  S
C1157      H1163   1.086       .  S
C1157      C1158   1.368       .  D
C1158      C1340   1.446       .  S
C1159      H1164   1.087       .  S
C1159      C1160   1.362       .  D
C1160      C1365   1.442       .  S
C1165      C1166   1.547       .  S
C1165      C1171   1.544       .  S
C1165      C1169   1.540       .  S
C1165      C1328   1.526       .  S
C1166      H1173   1.084       .  S
C1166      C1167   1.362       .  D
C1167      C1168   1.531       .  S
C1167      C1368   1.441       .  S
C1168      C1172   1.529       .  S
C1168      C1170   1.531       .  S
C1168      H1174   1.112       .  S
C1169      H1175   1.086       .  S
C1169      C1170   1.364       .  D
C1170      C1325   1.440       .  S
C1171      H1176   1.086       .  S
C1171      C1172   1.362       .  D
C1172      C1337   1.437       .  S
C1177      C1178   1.547       .  S
C1177      C1183   1.544       .  S
C1177      C1181   1.541       .  S
C1177      C1316   1.527       .  S
C1178      H1185   1.083       .  S
C1178      C1179   1.359       .  D
C1179      C1180   1.528       .  S
C1179      C1338   1.437       .  S
C1180      C1184   1.528       .  S
C1180      C1182   1.532       .  S
C1180      H1186   1.112       .  S
C1181      H1187   1.086       .  S
C1181      C1182   1.364       .  D
C1182      C1313   1.440       .  S
C1183      H1188   1.086       .  S
C1183      C1184   1.363       .  D
C1184      C1352   1.438       .  S
C1189      C1190   1.545       .  S
C1189      C1195   1.547       .  S
C1189      C1193   1.541       .  S
C1189      C1300   1.532       .  S
C1190      H1197   1.086       .  S
C1190      C1191   1.362       .  D
C1191      C1192   1.533       .  S
C1191      C1312   1.443       .  S
C1192      C1196   1.534       .  S
C1192      C1194   1.535       .  S
C1192      H1198   1.112       .  S
C1193      H1199   1.086       .  S
C1193      C1194   1.366       .  D
C1194      C1353   1.446       .  S
C1195      H1200   1.084       .  S
C1195      C1196   1.363       .  D
C1196      C1309   1.444       .  S
C1201      C1202   1.546       .  S
C1201      C1207   1.547       .  S
C1201      C1205   1.542       .  S
C1201      C1288   1.532       .  S
C1202      H1209   1.086       .  S
C1202      C1203   1.363       .  D
C1203      C1204   1.532       .  S
C1203      C1310   1.443       .  S
C1204      C1208   1.531       .  S
C1204      C1206   1.533       .  S
C1204      H1210   1.112       .  S
C1205      H1211   1.086       .  S
C1205      C1206   1.366       .  D
C1206      C1339   1.446       .  S
C1207      H1212   1.084       .  S
C1207      C1208   1.362       .  D
C1208      C1298   1.440       .  S
C1213      C1214   1.543       .  S
C1213      C1219   1.548       .  S
C1213      C1217   1.538       .  S
C1213      C1276   1.525       .  S
C1214      H1221   1.086       .  S
C1214      C1215   1.358       .  D
C1215      C1216   1.530       .  S
C1215      C1285   1.436       .  S
C1216      C1220   1.532       .  S
C1216      C1218   1.533       .  S
C1216      H1222   1.112       .  S
C1217      H1223   1.086       .  S
C1217      C1218   1.364       .  D
C1218      C1326   1.440       .  S
C1219      H1224   1.085       .  S
C1219      C1220   1.365       .  D
C1220      C1311   1.443       .  S
C1225      C1226   1.544       .  S
C1225      C1231   1.548       .  S
C1225      C1229   1.540       .  S
C1225      C1266   1.526       .  S
C1226      H1233   1.086       .  S
C1226      C1227   1.361       .  D
C1227      C1228   1.530       .  S
C1227      C1297   1.439       .  S
C1228      C1232   1.528       .  S
C1228      C1230   1.532       .  S
C1228      H1234   1.112       .  S
C1229      H1235   1.086       .  S
C1229      C1230   1.363       .  D
C1230      C1314   1.440       .  S
C1231      H1236   1.083       .  S
C1231      C1232   1.363       .  D
C1232      C1286   1.437       .  S
O1237     Cu1245   2.006       .  S
O1237      C1247   1.278       .  A
O1238      C1248   1.279       .  A
O1239      C1249   1.278       .  A
O1240      C1250   1.278       .  A
O1241      C1250   1.278       .  A
O1242      C1249   1.279   1_554  A
O1243      C1248   1.277       .  A
O1244     Cu1246   2.020       .  S
O1244      C1247   1.280       .  A
Cu1245    Cu1246   2.371       .  S
C1247      C1291   1.484       .  S
C1248      C1331   1.479       .  S
C1249      C1345   1.482       .  S
C1250      C1279   1.480       .  S
O1251     Cu1259   2.003       .  S
O1251      C1261   1.278       .  A
O1252     Cu1487   2.029   1_546  S
O1252      C1262   1.281       .  A
O1253      C1263   1.277       .  A
O1254     Cu1715   2.025   1_545  S
O1254      C1264   1.280       .  A
O1255     Cu1716   2.007   1_545  S
O1255      C1264   1.278       .  A
O1256      C1263   1.279       .  A
O1257     Cu1488   2.012   1_546  S
O1257      C1262   1.278       .  A
O1258     Cu1260   2.011       .  S
O1258      C1261   1.279       .  A
Cu1259     O1480   2.010       .  S
Cu1259     O1710   2.018       .  S
Cu1259    Cu1260   2.370       .  S
Cu1260     O1711   2.011       .  S
Cu1260     O1485   2.009       .  S
C1261      C1269   1.479       .  S
C1262      C1359   1.488       .  S
C1263      C1319   1.476       .  S
C1264      C1303   1.485       .  S
C1265      C1266   1.410       .  A
C1265      C1270   1.398       .  A
C1265      H1271   1.078       .  S
C1266      C1267   1.408       .  A
C1267      C1268   1.396       .  A
C1267      H1272   1.083       .  S
C1268      C1269   1.403       .  A
C1268      H1273   1.083       .  S
C1269      C1270   1.403       .  A
C1270      H1274   1.083       .  S
C1275      C1276   1.410       .  A
C1275      C1280   1.395       .  A
C1275      H1281   1.082       .  S
C1276      C1277   1.408       .  A
C1277      C1278   1.399       .  A
C1277      H1282   1.081       .  S
C1278      C1279   1.405       .  A
C1278      H1283   1.083       .  S
C1279      C1280   1.403       .  A
C1280      H1284   1.083       .  S
C1285      C1286   1.203       .  T
C1287      C1288   1.412       .  A
C1287      C1292   1.400       .  A
C1287      H1293   1.079       .  S
C1288      C1289   1.409       .  A
C1289      C1290   1.398       .  A
C1289      H1294   1.083       .  S
C1290      C1291   1.405       .  A
C1290      H1295   1.083       .  S
C1291      C1292   1.404       .  A
C1292      H1296   1.083       .  S
C1297      C1298   1.204       .  T
C1299      C1300   1.411       .  A
C1299      C1304   1.401       .  A
C1299      H1305   1.080       .  S
C1300      C1301   1.409       .  A
C1301      C1302   1.398       .  A
C1301      H1306   1.082       .  S
C1302      C1303   1.405       .  A
C1302      H1307   1.083       .  S
C1303      C1304   1.404       .  A
C1304      H1308   1.083       .  S
C1309      C1310   1.207       .  T
C1311      C1312   1.206       .  T
C1313      C1314   1.205       .  T
C1315      C1316   1.409       .  A
C1315      C1320   1.399       .  A
C1315      H1321   1.083       .  S
C1316      C1317   1.411       .  A
C1317      C1318   1.394       .  A
C1317      H1322   1.078       .  S
C1318      C1319   1.401       .  A
C1318      H1323   1.083       .  S
C1319      C1320   1.404       .  A
C1320      H1324   1.083       .  S
C1325      C1326   1.205       .  T
C1327      C1328   1.409       .  A
C1327      C1332   1.397       .  A
C1327      H1333   1.080       .  S
C1328      C1329   1.409       .  A
C1329      C1330   1.397       .  A
C1329      H1334   1.082       .  S
C1330      C1331   1.404       .  A
C1330      H1335   1.083       .  S
C1331      C1332   1.403       .  A
C1337      C1338   1.203       .  T
C1339      C1340   1.209       .  T
C1341      C1342   1.409       .  A
C1341      C1346   1.400       .  A
C1341      H1347   1.083       .  S
C1342      C1343   1.412       .  A
C1343      C1344   1.397       .  A
C1343      H1348   1.078       .  S
C1344      C1345   1.402       .  A
C1345      C1346   1.405       .  A
C1346      H1350   1.083       .  S
C1351      C1352   1.204       .  T
C1353      C1354   1.208       .  T
C1355      C1356   1.410       .  A
C1355      C1360   1.401       .  A
C1355      H1361   1.083       .  S
C1356      C1357   1.412       .  A
C1357      C1358   1.402       .  A
C1357      H1362   1.078       .  S
C1358      C1359   1.404       .  A
C1358      H1363   1.083       .  S
C1359      C1360   1.406       .  A
C1360      H1364   1.083       .  S
C1365      C1366   1.206       .  T
C1367      C1368   1.205       .  T
C1369      C1370   1.548       .  S
C1369      C1375   1.543       .  S
C1369      C1373   1.541       .  S
C1369      C1584   1.529       .  S
C1370      H1377   1.083       .  S
C1370      C1371   1.363       .  D
C1371      C1372   1.531       .  S
C1371      C1594   1.441       .  S
C1372      C1376   1.530       .  S
C1372      C1374   1.534       .  S
C1372      H1378   1.112       .  S
C1373      H1379   1.086       .  S
C1373      C1374   1.365       .  D
C1374      C1582   1.444       .  S
C1375      H1380   1.086       .  S
C1375      C1376   1.361       .  D
C1376      C1595   1.438       .  S
C1381      C1382   1.547       .  S
C1381      C1387   1.545       .  S
C1381      C1385   1.539       .  S
C1381      C1570   1.528       .  S
C1382      H1389   1.083       .  S
C1382      C1383   1.361       .  D
C1383      C1384   1.533       .  S
C1383      C1579   1.442       .  S
C1384      C1388   1.532       .  S
C1384      C1386   1.533       .  S
C1384      H1390   1.112       .  S
C1385      H1391   1.086       .  S
C1385      C1386   1.363       .  D
C1386      C1568   1.440       .  S
C1387      H1392   1.086       .  S
C1387      C1388   1.363       .  D
C1388      C1593   1.441       .  S
C1393      C1394   1.549       .  S
C1393      C1399   1.539       .  S
C1393      C1397   1.543       .  S
C1393      C1556   1.525       .  S
C1394      H1401   1.082       .  S
C1394      C1395   1.360       .  D
C1395      C1396   1.529       .  S
C1395      C1596   1.438       .  S
C1396      C1400   1.531       .  S
C1396      C1398   1.532       .  S
C1396      H1402   1.112       .  S
C1397      H1403   1.086       .  S
C1397      C1398   1.365       .  D
C1398      C1553   1.442       .  S
C1399      H1404   1.087       .  S
C1399      C1400   1.359       .  D
C1400      C1565   1.436       .  S
C1405      C1406   1.549       .  S
C1405      C1411   1.544       .  S
C1405      C1409   1.545       .  S
C1405      C1544   1.534       .  S
C1406      H1413   1.081       .  S
C1406      C1407   1.361       .  D
C1407      C1408   1.527       .  S
C1407      C1566   1.437       .  S
C1408      C1412   1.530       .  S
C1408      C1410   1.531       .  S
C1408      H1414   1.112       .  S
C1409      H1415   1.086       .  S
C1409      C1410   1.367       .  D
C1410      C1541   1.445       .  S
C1411      H1416   1.086       .  S
C1411      C1412   1.364       .  D
C1412      C1580   1.442       .  S
C1417      C1418   1.543       .  S
C1417      C1423   1.548       .  S
C1417      C1421   1.543       .  S
C1417      C1528   1.530       .  S
C1418      H1425   1.087       .  S
C1418      C1419   1.362       .  D
C1419      C1420   1.530       .  S
C1419      C1540   1.439       .  S
C1420      C1424   1.530       .  S
C1420      C1422   1.532       .  S
C1420      H1426   1.112       .  S
C1421      H1427   1.086       .  S
C1421      C1422   1.366       .  D
C1422      C1581   1.444       .  S
C1423      H1428   1.083       .  S
C1423      C1424   1.360       .  D
C1424      C1537   1.440       .  S
C1429      C1430   1.543       .  S
C1429      C1435   1.549       .  S
C1429      C1433   1.543       .  S
C1429      C1516   1.530       .  S
C1430      H1437   1.087       .  S
C1430      C1431   1.363       .  D
C1431      C1432   1.530       .  S
C1431      C1538   1.439       .  S
C1432      C1436   1.528       .  S
C1432      C1434   1.530       .  S
C1432      H1438   1.112       .  S
C1433      H1439   1.086       .  S
C1433      C1434   1.364       .  D
C1434      C1567   1.439       .  S
C1435      H1440   1.081       .  S
C1435      C1436   1.362       .  D
C1436      C1526   1.439       .  S
C1441      C1442   1.545       .  S
C1441      C1447   1.548       .  S
C1441      C1445   1.541       .  S
C1441      C1504   1.530       .  S
C1442      H1449   1.086       .  S
C1442      C1443   1.363       .  D
C1443      C1444   1.532       .  S
C1443      C1513   1.445       .  S
C1444      C1448   1.530       .  S
C1444      C1446   1.534       .  S
C1444      H1450   1.112       .  S
C1445      H1451   1.086       .  S
C1445      C1446   1.365       .  D
C1446      C1554   1.442       .  S
C1447      H1452   1.083       .  S
C1447      C1448   1.361       .  D
C1448      C1539   1.439       .  S
C1453      C1454   1.539       .  S
C1453      C1459   1.552       .  S
C1453      C1457   1.545       .  S
C1453      C1494   1.535       .  S
C1454      H1461   1.087       .  S
C1454      C1455   1.361       .  D
C1455      C1456   1.532       .  S
C1455      C1525   1.439       .  S
C1456      C1460   1.531       .  S
C1456      C1458   1.534       .  S
C1456      H1462   1.112       .  S
C1457      H1463   1.086       .  S
C1457      C1458   1.366       .  D
C1458      C1542   1.445       .  S
C1459      H1464   1.081       .  S
C1459      C1460   1.364       .  D
C1460      C1514   1.446       .  S
O1465     Cu1473   2.003       .  S
O1465      C1475   1.277       .  A
O1466      C1476   1.276       .  A
O1467     Cu1701   2.005       .  S
O1467      C1477   1.278       .  A
O1468      C1478   1.278       .  A
O1469      C1478   1.279       .  A
O1470     Cu1702   2.014       .  S
O1470      C1477   1.279       .  A
O1471      C1476   1.278       .  A
O1472     Cu1474   2.019       .  S
O1472      C1475   1.280       .  A
Cu1473     O1695   2.009       .  S
Cu1473    Cu1474   2.371       .  S
Cu1474     O1698   2.011   1_554  S
C1475      C1519   1.480       .  S
C1476      C1559   1.472       .  S
C1477      C1573   1.480       .  S
C1478      C1507   1.480       .  S
O1479     Cu1487   2.027       .  S
O1479      C1489   1.280       .  A
O1480      C1490   1.279       .  A
O1481     Cu1715   2.018       .  S
O1481      C1491   1.279       .  A
O1482      C1492   1.278       .  A
O1483      C1492   1.278       .  A
O1484     Cu1716   2.012       .  S
O1484      C1491   1.279       .  A
O1485      C1490   1.278       .  A
O1486     Cu1488   2.014       .  S
O1486      C1489   1.279       .  A
Cu1487     O1709   2.026   1_554  S
Cu1487    Cu1488   2.369       .  S
Cu1488     O1712   2.001   1_554  S
C1489      C1497   1.485       .  S
C1490      C1587   1.482       .  S
C1491      C1547   1.483       .  S
C1492      C1531   1.480       .  S
C1493      C1494   1.411       .  A
C1493      C1498   1.399       .  A
C1493      H1499   1.075       .  S
C1494      C1495   1.412       .  A
C1495      C1496   1.403       .  A
C1495      H1500   1.083       .  S
C1496      C1497   1.404       .  A
C1496      H1501   1.083       .  S
C1497      C1498   1.403       .  A
C1498      H1502   1.084       .  S
C1503      C1504   1.409       .  A
C1503      C1508   1.399       .  A
C1503      H1509   1.083       .  S
C1504      C1505   1.411       .  A
C1505      C1506   1.398       .  A
C1505      H1510   1.078       .  S
C1506      C1507   1.403       .  A
C1506      H1511   1.083       .  S
C1507      C1508   1.404       .  A
C1508      H1512   1.083       .  S
C1513      C1514   1.208       .  T
C1515      C1516   1.412       .  A
C1515      C1520   1.399       .  A
C1515      H1521   1.075       .  S
C1516      C1517   1.409       .  A
C1517      C1518   1.398       .  A
C1517      H1522   1.083       .  S
C1518      C1519   1.404       .  A
C1518      H1523   1.083       .  S
C1519      C1520   1.402       .  A
C1520      H1524   1.083       .  S
C1525      C1526   1.204       .  T
C1527      C1528   1.410       .  A
C1527      C1532   1.396       .  A
C1527      H1533   1.078       .  S
C1528      C1529   1.410       .  A
C1529      C1530   1.400       .  A
C1529      H1534   1.083       .  S
C1530      C1531   1.404       .  A
C1530      H1535   1.083       .  S
C1531      C1532   1.403       .  A
C1532      H1536   1.083       .  S
C1537      C1538   1.204       .  T
C1539      C1540   1.204       .  T
C1541      C1542   1.208       .  T
C1543      C1544   1.410       .  A
C1543      C1548   1.402       .  A
C1543      H1549   1.083       .  S
C1544      C1545   1.412       .  A
C1545      C1546   1.398       .  A
C1545      H1550   1.076       .  S
C1546      C1547   1.403       .  A
C1546      H1551   1.083       .  S
C1547      C1548   1.404       .  A
C1548      H1552   1.083       .  S
C1553      C1554   1.206       .  T
C1555      C1556   1.409       .  A
C1555      C1560   1.392       .  A
C1555      H1561   1.077       .  S
C1556      C1557   1.410       .  A
C1557      C1558   1.398       .  A
C1557      H1562   1.083       .  S
C1558      C1559   1.402       .  A
C1558      H1563   1.083       .  S
C1559      C1560   1.401       .  A
C1560      H1792   1.083       .  S
H1564      C1788   1.083       .  S
C1565      C1566   1.202       .  T
C1567      C1568   1.204       .  T
C1569      C1570   1.408       .  A
C1569      C1574   1.397       .  A
C1569      H1575   1.083       .  S
C1570      C1571   1.411       .  A
C1571      C1572   1.398       .  A
C1571      H1576   1.078       .  S
C1572      C1573   1.403       .  A
C1572      H1805   1.083       .  S
C1573      C1574   1.404       .  A
C1574      H1578   1.083       .  S
H1577      C1800   1.083       .  S
C1579      C1580   1.206       .  T
C1581      C1582   1.207       .  T
C1583      C1584   1.409       .  A
C1583      C1588   1.398       .  A
C1583      H1589   1.083       .  S
C1584      C1585   1.410       .  A
C1585      C1586   1.398       .  A
C1585      H1590   1.078       .  S
C1586      C1587   1.404       .  A
C1586      H1591   1.083       .  S
C1587      C1588   1.404       .  A
C1588      H1592   1.083       .  S
C1593      C1594   1.205       .  T
C1595      C1596   1.203       .  T
C1597      C1598   1.545       .  S
C1597      C1603   1.546       .  S
C1597      C1601   1.541       .  S
C1597      C1812   1.530       .  S
C1598      H1605   1.086       .  S
C1598      C1599   1.362       .  D
C1599      C1600   1.532       .  S
C1599      C1822   1.441       .  S
C1600      C1604   1.533       .  S
C1600      C1602   1.534       .  S
C1600      H1606   1.112       .  S
C1601      H1607   1.086       .  S
C1601      C1602   1.366       .  D
C1602      C1810   1.444       .  S
C1603      H1608   1.085       .  S
C1603      C1604   1.361       .  D
C1604      C1823   1.442       .  S
C1609      C1610   1.542       .  S
C1609      C1615   1.549       .  S
C1609      C1613   1.544       .  S
C1609      C1798   1.531       .  S
C1610      H1617   1.087       .  S
C1610      C1611   1.360       .  D
C1611      C1612   1.531       .  S
C1611      C1807   1.441       .  S
C1612      C1616   1.530       .  S
C1612      C1614   1.532       .  S
C1612      H1618   1.112       .  S
C1613      H1619   1.086       .  S
C1613      C1614   1.367       .  D
C1614      C1796   1.443       .  S
C1615      H1620   1.082       .  S
C1615      C1616   1.362       .  D
C1616      C1821   1.441       .  S
C1621      C1622   1.544       .  S
C1621      C1627   1.548       .  S
C1621      C1625   1.543       .  S
C1621      C1784   1.531       .  S
C1622      H1629   1.086       .  S
C1622      C1623   1.364       .  D
C1623      C1624   1.530       .  S
C1623      C1824   1.442       .  S
C1624      C1628   1.528       .  S
C1624      C1626   1.532       .  S
C1624      H1630   1.112       .  S
C1625      H1631   1.086       .  S
C1625      C1626   1.364       .  D
C1626      C1781   1.442       .  S
C1627      H1632   1.081       .  S
C1627      C1628   1.362       .  D
C1628      C1793   1.438       .  S
C1633      C1634   1.545       .  S
C1633      C1639   1.547       .  S
C1633      C1637   1.539       .  S
C1633      C1772   1.528       .  S
C1634      H1641   1.086       .  S
C1634      C1635   1.361       .  D
C1635      C1636   1.530       .  S
C1635      C1794   1.438       .  S
C1636      C1640   1.532       .  S
C1636      C1638   1.534       .  S
C1636      H1642   1.112       .  S
C1637      H1643   1.086       .  S
C1637      C1638   1.363       .  D
C1638      C1769   1.441       .  S
C1639      H1644   1.085       .  S
C1639      C1640   1.364       .  D
C1640      C1808   1.442       .  S
C1645      C1646   1.550       .  S
C1645      C1651   1.544       .  S
C1645      C1649   1.543       .  S
C1645      C1756   1.533       .  S
C1646      H1653   1.082       .  S
C1646      C1647   1.363       .  D
C1647      C1648   1.530       .  S
C1647      C1768   1.442       .  S
C1648      C1652   1.531       .  S
C1648      C1650   1.533       .  S
C1648      H1654   1.112       .  S
C1649      H1655   1.086       .  S
C1649      C1650   1.366       .  D
C1650      C1809   1.444       .  S
C1651      H1656   1.087       .  S
C1651      C1652   1.362       .  D
C1652      C1765   1.442       .  S
C1657      C1658   1.549       .  S
C1657      C1663   1.540       .  S
C1657      C1661   1.541       .  S
C1657      C1744   1.527       .  S
C1658      H1665   1.083       .  S
C1658      C1659   1.363       .  D
C1659      C1660   1.532       .  S
C1659      C1766   1.442       .  S
C1660      C1664   1.532       .  S
C1660      C1662   1.535       .  S
C1660      H1666   1.112       .  S
C1661      H1667   1.086       .  S
C1661      C1662   1.364       .  D
C1662      C1795   1.444       .  S
C1663      H1668   1.087       .  S
C1663      C1664   1.360       .  D
C1664      C1754   1.438       .  S
C1669      C1670   1.546       .  S
C1669      C1675   1.544       .  S
C1669      C1673   1.541       .  S
C1669      C1732   1.528       .  S
C1670      H1677   1.082       .  S
C1670      C1671   1.360       .  D
C1671      C1672   1.533       .  S
C1671      C1741   1.441       .  S
C1672      C1676   1.532       .  S
C1672      C1674   1.534       .  S
C1672      H1678   1.112       .  S
C1673      H1679   1.086       .  S
C1673      C1674   1.365       .  D
C1674      C1782   1.442       .  S
C1675      H1680   1.086       .  S
C1675      C1676   1.362       .  D
C1676      C1767   1.442       .  S
C1681      C1682   1.550       .  S
C1681      C1687   1.545       .  S
C1681      C1685   1.543       .  S
C1681      C1722   1.532       .  S
C1682      H1689   1.083       .  S
C1682      C1683   1.361       .  D
C1683      C1684   1.526       .  S
C1683      C1753   1.438       .  S
C1684      C1688   1.529       .  S
C1684      C1686   1.529       .  S
C1684      H1690   1.112       .  S
C1685      H1691   1.086       .  S
C1685      C1686   1.365       .  D
C1686      C1770   1.440       .  S
C1687      H1692   1.087       .  S
C1687      C1688   1.364       .  D
C1688      C1742   1.440       .  S
O1693     Cu1701   1.996       .  S
O1693      C1703   1.277       .  A
O1694      C1704   1.277       .  A
O1695      C1705   1.279   1_554  A
O1696      C1706   1.278       .  A
O1697      C1706   1.278       .  A
O1698      C1705   1.278       .  A
O1699      C1704   1.280   1_554  A
O1700     Cu1702   2.016       .  S
O1700      C1703   1.279       .  A
Cu1701    Cu1702   2.371       .  S
C1703      C1747   1.477       .  S
C1704      C1787   1.480       .  S
C1705      C1801   1.480       .  S
C1706      C1735   1.479       .  S
O1707     Cu1715   2.014       .  S
O1707      C1717   1.279       .  A
O1708      C1718   1.278       .  A
O1709      C1719   1.280       .  A
O1710      C1720   1.279       .  A
O1711      C1720   1.279       .  A
O1712      C1719   1.277       .  A
O1713      C1718   1.279       .  A
O1714     Cu1716   2.010       .  S
O1714      C1717   1.278       .  A
Cu1715    Cu1716   2.370       .  S
C1717      C1725   1.481       .  S
C1718      C1815   1.483       .  S
C1719      C1775   1.484       .  S
C1720      C1759   1.484       .  S
C1721      C1722   1.410       .  A
C1721      C1726   1.400       .  A
C1721      H1727   1.083       .  S
C1722      C1723   1.412       .  A
C1723      C1724   1.398       .  A
C1723      H1728   1.078       .  S
C1724      C1725   1.402       .  A
C1724      H1729   1.083       .  S
C1725      C1726   1.404       .  A
C1726      H1730   1.083       .  S
C1731      C1732   1.411       .  A
C1731      C1736   1.397       .  A
C1731      H1737   1.077       .  S
C1732      C1733   1.408       .  A
C1733      C1734   1.398       .  A
C1733      H1738   1.083       .  S
C1734      C1735   1.404       .  A
C1734      H1739   1.083       .  S
C1735      C1736   1.402       .  A
C1736      H1740   1.083       .  S
C1741      C1742   1.205       .  T
C1743      C1744   1.410       .  A
C1743      C1748   1.398       .  A
C1743      H1749   1.083       .  S
C1744      C1745   1.409       .  A
C1745      C1746   1.396       .  A
C1745      H1750   1.078       .  S
C1746      C1747   1.403       .  A
C1746      H1751   1.083       .  S
C1747      C1748   1.402       .  A
C1748      H1752   1.083       .  S
C1753      C1754   1.203       .  T
C1755      C1756   1.410       .  A
C1755      C1760   1.401       .  A
C1755      H1761   1.083       .  S
C1756      C1757   1.411       .  A
C1757      C1758   1.399       .  A
C1757      H1762   1.077       .  S
C1758      C1759   1.403       .  A
C1758      H1763   1.083       .  S
C1759      C1760   1.404       .  A
C1760      H1764   1.083       .  S
C1765      C1766   1.206       .  T
C1767      C1768   1.206       .  T
C1769      C1770   1.205       .  T
C1771      C1772   1.410       .  A
C1771      C1776   1.401       .  A
C1771      H1777   1.080       .  S
C1772      C1773   1.408       .  A
C1773      C1774   1.396       .  A
C1773      H1778   1.082       .  S
C1774      C1775   1.405       .  A
C1774      H1779   1.083       .  S
C1775      C1776   1.405       .  A
C1776      H1780   1.083       .  S
C1781      C1782   1.206       .  T
C1783      C1784   1.408       .  A
C1783      C1788   1.398       .  A
C1783      H1789   1.083       .  S
C1784      C1785   1.413       .  A
C1785      C1786   1.399       .  A
C1785      H1790   1.075       .  S
C1786      C1787   1.402       .  A
C1786      H1791   1.083       .  S
C1787      C1788   1.404       .  A
C1793      C1794   1.203       .  T
C1795      C1796   1.207       .  T
C1797      C1798   1.411       .  A
C1797      C1802   1.397       .  A
C1797      H1803   1.077       .  S
C1798      C1799   1.410       .  A
C1799      C1800   1.399       .  A
C1799      H1804   1.083       .  S
C1800      C1801   1.404       .  A
C1801      C1802   1.403       .  A
C1802      H1806   1.083       .  S
C1807      C1808   1.206       .  T
C1809      C1810   1.207       .  T
C1811      C1812   1.410       .  A
C1811      C1816   1.398       .  A
C1811      H1817   1.081       .  S
C1812      C1813   1.409       .  A
C1813      C1814   1.399       .  A
C1813      H1818   1.082       .  S
C1814      C1815   1.405       .  A
C1814      H1819   1.083       .  S
C1815      C1816   1.404       .  A
C1816      H1820   1.083       .  S
C1821      C1822   1.205       .  T
C1823      C1824   1.206       .  T
