geometry optimzed in LAMMPS
_audit_creation_date              2020-11-30 
_audit_creation_method            'lammps2cif' 
_symmetry_space_group_name_H-M    'P1' 
_symmetry_Int_Tables_number       1 
_symmetry_cell_setting            triclinic 
loop_ 
_symmetry_equiv_pos_as_xyz 
  x,y,z 
_cell_length_a                    31.92303741 
_cell_length_b                    33.9967513694452 
_cell_length_c                    23.96826483764075 
_cell_angle_alpha                 89.53473149334988 
_cell_angle_beta                  89.85884773720645 
_cell_angle_gamma                 117.83483655314028 
loop_ 
_atom_site_label 
_atom_site_type_symbol 
_atom_site_fract_x 
_atom_site_fract_y 
_atom_site_fract_z 
_atom_site_charge 
C1          C  0.33716786  0.66860202  0.30910713     0.45500
H2          H  0.33714462  0.66837734  0.35543319    -0.03600
C3          C  0.33664341  0.66923157  0.20055677     0.45500
H4          H  0.33703395  0.66978815  0.15429837    -0.03600
C5          C  0.28614245  0.64291034  0.28431673    -0.17200
C6          C  0.36051980  0.71663822  0.28387631    -0.17000
C7          C  0.36538100  0.64618115  0.28376824    -0.17400
C8          C  0.28533526  0.64433263  0.22631495    -0.17400
C9          C  0.36067371  0.71734982  0.22591274    -0.16900
C10         C  0.36374228  0.64484464  0.22590731    -0.17200
O11         O  0.15569525  0.42082773  0.81241326    -0.74400
O12         O  0.23951578  0.43384850  0.69337872    -0.74400
O13         O  0.14745077  0.40938588  0.70018540    -0.74500
O14         O  0.24817865  0.44496914  0.80351021    -0.74500
O15         O  0.23207895  0.37421109  0.81592156    -0.74500
O16         O  0.13092813  0.33816981  0.70988241    -0.74500
O17         O  0.22485985  0.36329555  0.70526092    -0.74400
O18         O  0.13778971  0.34938792  0.82364929    -0.74500
Ni19       Ni  0.19780807  0.42955269  0.75207838     1.25400
Ni20       Ni  0.18037805  0.35346027  0.76419429     1.25400
C21         C  0.13421820  0.38377517  0.83872475     0.87800
C22         C  0.24786765  0.40158529  0.68182660     0.87700
C23         C  0.12451665  0.36866630  0.68574956     0.87700
C24         C  0.25829759  0.41581582  0.82468491     0.87900
O25         O  0.31922749  0.61230914  0.68464989    -0.74400
O26         O  0.36602248  0.71294291  0.78172404    -0.74400
O27         O  0.28743338  0.63412415  0.77563140    -0.74500
O28         O  0.40184355  0.69474905  0.69066935    -0.74500
O29         O  0.36578363  0.72392085  0.63741962    -0.74500
O30         O  0.25324868  0.66470694  0.72206851    -0.74500
O31         O  0.33104949  0.74277815  0.72804776    -0.74400
O32         O  0.28710179  0.64499757  0.63108896    -0.74500
Ni33       Ni  0.34524212  0.66218598  0.73455041     1.25400
Ni34       Ni  0.30833864  0.69505713  0.67745769     1.25400
C35         C  0.29047977  0.61052961  0.64621855     0.87800
C36         C  0.35534634  0.74412445  0.77093082     0.87700
C37         C  0.25172962  0.63995233  0.76313396     0.87700
C38         C  0.40326822  0.72289389  0.65384368     0.87900
O39         O  0.76582451  0.61067438  0.31966770    -0.74400
O40         O  0.85652959  0.64549153  0.20075183    -0.74400
O41         O  0.76088077  0.61236101  0.20790213    -0.74500
O42         O  0.86069640  0.64185802  0.31533751    -0.74500
O43         O  0.84974250  0.57216468  0.30915356    -0.74500
O44         O  0.75143271  0.54319455  0.20524623    -0.74500
O45         O  0.84493040  0.57552800  0.19628971    -0.74400
O46         O  0.75592681  0.54137447  0.31597029    -0.74500
Ni47       Ni  0.81178707  0.63038347  0.26096163     1.25400
Ni48       Ni  0.80062805  0.55586746  0.25651618     1.25400
C49         C  0.74448521  0.56995625  0.33572308     0.87800
C50         C  0.86386556  0.61552465  0.17754342     0.87700
C51         C  0.73836996  0.57199915  0.19102863     0.87700
C52         C  0.86945180  0.61041397  0.33164430     0.87900
O53         O  0.06101735  0.55137996  0.13732729    -0.80900
O54         O  0.88889967  0.46501572  0.95764928    -0.65600
O55         O  0.99278418  0.49287011  0.06100897    -1.12200
C56         C  0.08552764  0.55232795  0.89929009     1.06000
O57         O  0.91892106  0.43876825  0.89434688    -0.78800
O58         O  0.00187922  0.44116684  0.91782181    -0.66400
Ni59       Ni  0.99249447  0.52476906  0.12691763     1.34900
C60         C  0.03140479  0.44345793  0.95450687     0.84700
O61         O  0.89545950  0.44910810  0.06569226    -0.79300
O62         O  0.92350339  0.50229098  0.12868577    -0.89600
C63         C  0.88342155  0.44113073  0.91473012     0.84300
O64         O  0.00000007  0.57322836  0.08034826    -0.67800
O65         O  0.04946317  0.52425232  0.87297309    -0.87100
C66         C  0.96596866  0.57088335  0.05074783     0.85100
C67         C  0.88876709  0.47077268  0.10405523     1.06700
H68         H  0.98823733  0.53928098  0.94786870     0.38500
O69         O  0.98864247  0.51180975  0.95748181    -1.09700
O70         O  0.04914119  0.47469285  0.99017992    -0.66400
Ni71       Ni  0.04130903  0.52655956  0.00722486     1.26300
O72         O  0.93840870  0.53516822  0.02502408    -0.66600
O73         O  0.08656480  0.55914687  0.95143630    -0.78900
C74         C  0.09784643  0.55718049  0.10978657     0.84500
O75         O  0.09436900  0.54416478  0.05917019    -0.66100
Ni76       Ni  0.98475829  0.48322161  0.88835966     1.27400
Ni77       Ni  0.94096245  0.47994493  0.01025798     1.26100
H78         H  0.99364621  0.46574326  0.07146341     0.39100
O79         O  0.93125358  0.44573919  0.64378503    -0.80900
O80         O  0.10358418  0.52734052  0.46255840    -0.65600
O81         O  0.99872876  0.50054736  0.56336851    -1.12200
C82         C  0.90528419  0.44540099  0.40779689     1.06000
O83         O  0.07487715  0.54642098  0.38896999    -0.78800
O84         O  0.00442550  0.55751947  0.43867444    -0.66400
Ni85       Ni  0.99972112  0.47174985  0.63264783     1.34900
C86         C  0.96669584  0.55138428  0.46332857     0.84700
O87         O  0.09560046  0.54569308  0.56803856    -0.79300
O88         O  0.06881443  0.49403613  0.63386473    -0.89600
C89         C  0.10943579  0.54624453  0.41497977     0.84300
O90         O  0.99233107  0.42151588  0.59110116    -0.67800
O91         O  0.93830323  0.48093348  0.38666932    -0.87100
C92         C  0.02617811  0.42316612  0.56134437     0.85100
C93         C  0.10323245  0.52496087  0.60716514     1.06700
H94         H  0.00617690  0.45343999  0.44992713     0.38500
O95         O  0.00442145  0.48002520  0.46037432    -1.09700
O96         O  0.94152663  0.51542620  0.49064738    -0.66400
Ni97       Ni  0.95154538  0.46468106  0.51061118     1.26300
O98         O  0.05330682  0.45812556  0.53293225    -0.66600
O99         O  0.90766754  0.43038657  0.45562289    -0.78900
C100        C  0.89488943  0.43684426  0.61390136     0.84500
O101        O  0.89825442  0.44608663  0.56183040    -0.66100
Ni102      Ni  0.00635791  0.51246526  0.39417559     1.27400
Ni103      Ni  0.05090046  0.51304190  0.51348671     1.26100
H104        H  0.99704441  0.52761823  0.57115992     0.39100
O105        O  0.64429411  0.26801451  0.13730620    -0.74400
O106        O  0.74262128  0.32791409  0.23858378    -0.74400
O107        O  0.66729443  0.24673713  0.23473473    -0.74500
O108        O  0.71854729  0.34946250  0.14171140    -0.74500
O109        O  0.67358275  0.37483226  0.18400390    -0.74500
O110        O  0.62512904  0.27330118  0.28073694    -0.74500
O111        O  0.70038960  0.35564846  0.28180570    -0.74400
O112        O  0.59684852  0.28881629  0.18256634    -0.74500
Ni113      Ni  0.69463624  0.29727838  0.18635145     1.25400
Ni114      Ni  0.64717967  0.32429884  0.23347682     1.25400
C115        C  0.60319493  0.26398378  0.14700476     0.87800
C116        C  0.73861234  0.35234371  0.27610600     0.87700
C117        C  0.63728966  0.24292522  0.27262855     0.87700
C118        C  0.70740487  0.38042112  0.15081057     0.87900
O119        O  0.42101582  0.21322863  0.29193365    -0.74400
O120        O  0.38885348  0.11800814  0.19118828    -0.74400
O121        O  0.40984405  0.20373771  0.18150249    -0.74500
O122        O  0.40114363  0.12813476  0.30272717    -0.74500
O123        O  0.32407679  0.10714636  0.31382544    -0.74500
O124        O  0.33349659  0.18548290  0.19209646    -0.74500
O125        O  0.31183773  0.09808694  0.20069537    -0.74400
O126        O  0.34456094  0.19350601  0.30351959    -0.74500
Ni127      Ni  0.40772814  0.16612102  0.24136803     1.25400
Ni128      Ni  0.32551625  0.14509087  0.25277182     1.25400
C129        C  0.38817054  0.21952939  0.31404701     0.87800
C130        C  0.34551317  0.09313414  0.17848618     0.87700
C131        C  0.37397355  0.20899565  0.16867497     0.87700
C132        C  0.36224499  0.10682307  0.32966511     0.87900
O133        O  0.56538215  0.76872844  0.79109898    -0.74400
O134        O  0.59934999  0.85847527  0.67966263    -0.74400
O135        O  0.57980659  0.77329791  0.68074831    -0.74500
O136        O  0.58430581  0.85368124  0.79144955    -0.74500
O137        O  0.66125410  0.87583038  0.80537612    -0.74500
O138        O  0.65587543  0.79211094  0.69548591    -0.74500
O139        O  0.67615561  0.87931654  0.69247330    -0.74400
O140        O  0.64152208  0.78961694  0.80668711    -0.74500
Ni141      Ni  0.57968290  0.81310754  0.73513386     1.25400
Ni142      Ni  0.66169178  0.83521204  0.75033643     1.25400
C143        C  0.59757606  0.76405965  0.81738083     0.87800
C144        C  0.64292511  0.88289853  0.66685046     0.87700
C145        C  0.61631216  0.76819764  0.67131645     0.87700
C146        C  0.62260412  0.87645127  0.81814920     0.87900
O147        O  0.44008211  0.91851880  0.38680695    -0.80900
O148        O  0.54243443  0.08605712  0.55152534    -0.65600
O149        O  0.51200987  0.98733059  0.45111182    -1.12200
C150        C  0.47951035  0.89545622  0.60102144     1.06000
O151        O  0.54532217  0.05638357  0.63356885    -0.78800
O152        O  0.57971409  0.00565670  0.57670316    -0.66400
Ni153      Ni  0.47629803  0.98257934  0.38549532     1.34900
C154        C  0.58122001  0.97504510  0.54765885     0.84700
O155        O  0.55849099  0.07846760  0.44433156    -0.79300
O156        O  0.50936595  0.04592084  0.37293560    -0.89600
C157        C  0.55085895  0.08986945  0.60389995     0.84300
O158        O  0.42680301  0.98576035  0.42583610    -0.67800
O159        O  0.51012812  0.93028703  0.62508712    -0.87100
C160        C  0.43157575  0.01827233  0.45534756     0.85100
C161        C  0.54397024  0.07902218  0.39518622     1.06700
H162        H  0.46140063  0.98827212  0.56435546     0.38500
O163        O  0.49160736  0.98978678  0.55515556    -1.09700
O164        O  0.54501087  0.94691261  0.52059583    -0.66400
Ni165      Ni  0.48259160  0.94190587  0.50514163     1.26300
O166        O  0.46877123  0.04081912  0.48405923    -0.66600
O167        O  0.45466215  0.89786081  0.56138891    -0.78900
C168        C  0.44564989  0.88704776  0.40836866     0.84500
O169        O  0.47068984  0.89390044  0.45246276    -0.66100
Ni170      Ni  0.52588815  0.99323654  0.62252302     1.27400
Ni171      Ni  0.52565893  0.03601536  0.50085332     1.26100
H172        H  0.54164759  0.98883269  0.43907921     0.39100
O173        O  0.45513237  0.52468632  0.38069625    -0.80900
O174        O  0.52610154  0.42046062  0.55233973    -0.65600
O175        O  0.45870455  0.47265364  0.47282358    -1.12200
C176        C  0.54343477  0.59585212  0.58238895     1.06000
O177        O  0.54207411  0.45813213  0.63185942    -0.78800
O178        O  0.46716460  0.47524656  0.62279635    -0.66400
Ni179      Ni  0.46128147  0.47094871  0.39294884     1.34900
C180        C  0.43664034  0.48373828  0.59940505     0.84700
O181        O  0.45407266  0.39016897  0.48126831    -0.79300
O182        O  0.46329251  0.41495314  0.39318855    -0.89600
C183        C  0.54129986  0.42695195  0.60222764     0.84300
O184        O  0.52866780  0.50477304  0.39506773    -0.67800
O185        O  0.52981430  0.56531482  0.61943243    -0.87100
C186        C  0.55601748  0.49281092  0.42011144     0.85100
C187        C  0.45079153  0.38365837  0.42920187     1.06700
H188        H  0.56260936  0.51879971  0.52575109     0.38500
O189        O  0.53057993  0.50535371  0.54011035    -1.09700
O190        O  0.44817880  0.51416231  0.56200488    -0.66400
Ni191      Ni  0.49489488  0.53045584  0.50247010     1.26300
O192        O  0.54034214  0.46054175  0.45484344    -0.66600
O193        O  0.53387785  0.58742307  0.53141391    -0.78900
C194        C  0.44916636  0.55195523  0.41170036     0.84500
O195        O  0.45885020  0.55503787  0.46360383    -0.66100
Ni196      Ni  0.53373794  0.51040807  0.61979170     1.27400
Ni197      Ni  0.49271133  0.44670258  0.51197145     1.26100
H198        H  0.42602784  0.45916372  0.48508654     0.39100
O199        O  0.53348945  0.06223181  0.87972899    -0.80900
O200        O  0.44566585  0.89515729  0.05273239    -0.65600
O201        O  0.46965739  0.99534057  0.95541369    -1.12200
C202        C  0.53445173  0.08750448  0.09844532     1.06000
O203        O  0.46145083  0.92661366  0.13688931    -0.78800
O204        O  0.42452049  0.98045885  0.09586009    -0.66400
Ni205      Ni  0.49522377  0.99830724  0.88280235     1.34900
C206        C  0.42020543  0.00993064  0.06686215     0.84700
O207        O  0.41660055  0.90383721  0.95153782    -0.79300
O208        O  0.45936719  0.93513067  0.87430350    -0.89600
C209        C  0.44658733  0.89217241  0.10593974     0.84300
O210        O  0.54767583  0.99378440  0.91243803    -0.67800
O211        O  0.50413457  0.05534123  0.12813984    -0.87100
C212        C  0.54573072  0.96116753  0.94028994     0.85100
C213        C  0.42658573  0.90250711  0.90048434     1.06700
H214        H  0.53357362  0.98818540  0.05224854     0.38500
O215        O  0.50402250  0.98954795  0.05124015    -1.09700
O216        O  0.45435576  0.03857012  0.03665564    -0.66400
Ni217      Ni  0.51100188  0.03850286  0.00520012     1.26300
O218        O  0.51059448  0.93715495  0.97201239    -0.66600
O219        O  0.55237090  0.07923491  0.05652388    -0.78900
C220        C  0.53723920  0.09490037  0.90857478     0.84500
O221        O  0.52006540  0.08872695  0.95787919    -0.66100
Ni222      Ni  0.48354420  0.99063228  0.12633241     1.27400
Ni223      Ni  0.45910800  0.94534688  0.00289989     1.26100
H224        H  0.44039317  0.99688767  0.95136324     0.39100
O225        O  0.55475060  0.47195667  0.87915907    -0.80900
O226        O  0.46656644  0.55855684  0.05413780    -0.65600
O227        O  0.53837892  0.51132048  0.97403214    -1.18000
C228        C  0.44535558  0.37958143  0.06838833     1.06000
O229        O  0.44642435  0.51478190  0.12936414    -0.78800
O230        O  0.52157022  0.49619362  0.12043705    -0.66400
Ni231      Ni  0.54390614  0.52224361  0.89522901     1.34900
C232        C  0.55175451  0.48728158  0.09649868     0.84700
O233        O  0.54396585  0.59398791  0.98990206    -0.79300
O234        O  0.53879324  0.57646172  0.90008457    -0.89600
C235        C  0.44798774  0.54807090  0.10270144     0.84300
O236        O  0.47671370  0.48712692  0.88989676    -0.67800
O237        O  0.45691090  0.40739608  0.10796202    -0.87100
C238        C  0.44708285  0.49692734  0.91377001     0.85100
C239        C  0.54860261  0.60471517  0.93880022     1.06700
H240        H  0.43069967  0.46319757  0.01900233     0.38500
O241        O  0.46192148  0.47440743  0.03486356    -1.09700
O242        O  0.54041031  0.45938707  0.05673214    -0.66400
Ni243      Ni  0.49764573  0.45069263  0.99522716     1.26300
O244        O  0.45942765  0.52556440  0.95258876    -0.66600
O245        O  0.45534424  0.39159382  0.01790479    -0.78900
C246        C  0.55216067  0.43807471  0.90516955     0.84500
O247        O  0.53290078  0.42681591  0.95343429    -0.66100
Ni248      Ni  0.45467067  0.46299734  0.11335143     1.27400
Ni249      Ni  0.50250956  0.53493805  0.01354503     1.26100
H250        H  0.56969315  0.52250094  0.98963230     0.39100
C251        C  0.65543364  0.31233862  0.80944121     0.45500
H252        H  0.65388638  0.31229694  0.85574643    -0.03600
C253        C  0.65952500  0.31300747  0.70107444     0.45500
H254        H  0.66113636  0.31457696  0.65510635    -0.03600
C255        C  0.70701510  0.33838230  0.78677225    -0.17200
C256        C  0.63465534  0.26462088  0.78414552    -0.17000
C257        C  0.62769652  0.33464887  0.78193584    -0.17400
C258        C  0.70951952  0.33906495  0.72917691    -0.17400
C259        C  0.63529709  0.26411295  0.72564982    -0.16900
C260        C  0.62993323  0.33521042  0.72420477    -0.17200
C261        C  0.57264081  0.41119213  0.87680010    -0.00100
C262        C  0.54599181  0.36462434  0.87299494    -0.12000
C263        C  0.56264868  0.33910308  0.84247160     0.02100
C264        C  0.60760850  0.35977892  0.81562129    -0.00200
C265        C  0.63420438  0.40620349  0.81975650    -0.12000
C266        C  0.61728539  0.43178180  0.84923915     0.02000
H267        H  0.51095962  0.34825998  0.89176016     0.15000
H268        H  0.66835563  0.42274646  0.79916196     0.15000
C269        C  0.64692727  0.47934506  0.85084497     0.36600
C270        C  0.53091165  0.29241508  0.83547580     0.36500
N271        N  0.67075509  0.51747487  0.85187018    -0.43700
N272        N  0.50434607  0.25529556  0.82908626    -0.43700
C273        C  0.61487900  0.22351741  0.82188939    -0.00100
C274        C  0.58143673  0.21803058  0.86380805    -0.12000
C275        C  0.55619042  0.17739966  0.89357184     0.02100
C276        C  0.56475167  0.14085966  0.88265273    -0.00200
C277        C  0.60137922  0.14797470  0.84435659    -0.12000
C278        C  0.62673977  0.18858452  0.81523032     0.02000
H279        H  0.57395836  0.24524289  0.87241993     0.15000
H280        H  0.61037905  0.12140085  0.83682258     0.15000
C281        C  0.66449391  0.19315659  0.77820978     0.36600
C282        C  0.52068720  0.17403669  0.93335598     0.36500
N283        N  0.69441606  0.19628204  0.74828841    -0.43700
N284        N  0.49258015  0.17225283  0.96527184    -0.43700
C285        C  0.56069032  0.39844194  0.62748656    -0.00100
C286        C  0.60695395  0.40697271  0.61395360    -0.12000
C287        C  0.62953290  0.38577231  0.64272036     0.02100
C288        C  0.60615365  0.35559452  0.68741022    -0.00200
C289        C  0.55852978  0.34495814  0.69792714    -0.12000
C290        C  0.53599241  0.36603076  0.66897597     0.02000
H291        H  0.62613146  0.43134821  0.58157499     0.15000
H292        H  0.53851880  0.31978447  0.72884058     0.15000
C293        C  0.48701471  0.35284464  0.68171113     0.36600
C294        C  0.67678521  0.39655632  0.62486175     0.36500
N295        N  0.44748496  0.34124567  0.69178076    -0.43700
N296        N  0.71415043  0.40566348  0.60774633    -0.43700
C297        C  0.56896911  0.13522048  0.63208847    -0.00100
C298        C  0.60669508  0.17357312  0.60855010    -0.12000
C299        C  0.62801525  0.21529602  0.63641937     0.02100
C300        C  0.61120606  0.22092601  0.68971400    -0.00200
C301        C  0.57003687  0.18312692  0.70979605    -0.12000
C302        C  0.55089313  0.14089483  0.68374340     0.02000
H303        H  0.62102125  0.17059223  0.56865222     0.15000
H304        H  0.55258931  0.18592462  0.74712734     0.15000
C305        C  0.51233980  0.10365054  0.71134392     0.36600
C306        C  0.66705966  0.25102362  0.60771475     0.36500
N307        N  0.48177700  0.07369546  0.73380291    -0.43700
N308        N  0.69736751  0.27874544  0.58203764    -0.43700
C309        C  0.60981729  0.73037328  0.63709770    -0.00100
C310        C  0.62393016  0.70040898  0.65994528    -0.12000
C311        C  0.60347950  0.65647803  0.64178589     0.02100
C312        C  0.56899990  0.64254172  0.59937689    -0.00200
C313        C  0.55905116  0.67392287  0.57231703    -0.12000
C314        C  0.57907194  0.71766757  0.59098267     0.02000
H315        H  0.64773249  0.71014177  0.69529521     0.15000
H316        H  0.53382409  0.66377000  0.53838968     0.15000
C317        C  0.56611117  0.74846063  0.56373996     0.36600
C318        C  0.61785273  0.62632216  0.66806156     0.36500
N319        N  0.55582047  0.77311594  0.54174444    -0.43700
N320        N  0.62943515  0.60224049  0.68916113    -0.43700
C321        C  0.65323088  0.91614173  0.62258128    -0.00100
C322        C  0.63430413  0.90070815  0.56974867    -0.12000
C323        C  0.61959861  0.92560456  0.53592799     0.02100
C324        C  0.62132534  0.96503819  0.55714891    -0.00200
C325        C  0.65043603  0.98482261  0.60362497    -0.12000
C326        C  0.66614232  0.96029732  0.63675334     0.02000
H327        H  0.62621576  0.86723958  0.55765199     0.15000
H328        H  0.65496431  0.01647981  0.61896878     0.15000
C329        C  0.68943667  0.97855031  0.68883656     0.36600
C330        C  0.59802006  0.90743644  0.48298545     0.36500
N331        N  0.70857654  0.99312274  0.73037021    -0.43700
N332        N  0.58094055  0.89295367  0.44044633    -0.43700
C333        C  0.56130735  0.65019774  0.92216725    -0.00100
C334        C  0.52522227  0.65834448  0.90149382    -0.12000
C335        C  0.53584749  0.69674628  0.87046956     0.02100
C336        C  0.58389500  0.72749025  0.85892910    -0.00200
C337        C  0.61985429  0.72085588  0.88442247    -0.12000
C338        C  0.60884172  0.68242941  0.91587106     0.02000
H339        H  0.48856119  0.63330213  0.90695082     0.15000
H340        H  0.65679363  0.74445972  0.87748204     0.15000
C341        C  0.64682229  0.67533246  0.93807242     0.36600
C342        C  0.49638929  0.70205315  0.84933925     0.36500
N343        N  0.67726860  0.66971581  0.95597802    -0.43700
N344        N  0.46461400  0.70608426  0.83257995    -0.43700
C345        C  0.62004078  0.90215111  0.86538960    -0.00100
C346        C  0.63849857  0.94815135  0.85929380    -0.12000
C347        C  0.62024496  0.97091430  0.89129018     0.02100
C348        C  0.58185338  0.94664054  0.92840452    -0.00200
C349        C  0.57042951  0.90249759  0.94175094    -0.12000
C350        C  0.58899207  0.88000868  0.91013858     0.02000
H351        H  0.66373954  0.96548942  0.82623786     0.15000
H352        H  0.54285961  0.88384595  0.97217827     0.15000
C353        C  0.57232980  0.83323865  0.92126621     0.36600
C354        C  0.63890680  0.01819679  0.88188528     0.36500
N355        N  0.55881168  0.79588635  0.93119881    -0.43700
N356        N  0.65382583  0.05608101  0.87452645    -0.43700
C357        C  0.42095709  0.33207502  0.08301258    -0.00100
C358        C  0.38122235  0.31687253  0.11817756    -0.12000
C359        C  0.36138263  0.27426949  0.14181458     0.02100
C360        C  0.38198617  0.24629046  0.13070327    -0.00200
C361        C  0.41921331  0.26025442  0.09146650    -0.12000
C362        C  0.43880576  0.30287910  0.06754004     0.02000
H363        H  0.36711124  0.33926206  0.12943676     0.15000
H364        H  0.43535307  0.23906676  0.08266073     0.15000
C365        C  0.48018898  0.31738588  0.03221864     0.36600
C366        C  0.32317428  0.26224737  0.18154690     0.36500
N367        N  0.51358678  0.32901368  0.00432432    -0.43700
N368        N  0.29251654  0.25271529  0.21330588    -0.43700
C369        C  0.43389902  0.33868420  0.40867327    -0.00100
C370        C  0.38609413  0.31440504  0.39495251    -0.12000
C371        C  0.36951592  0.27427755  0.36653019     0.02100
C372        C  0.40167846  0.25835686  0.35077080    -0.00200
C373        C  0.44935966  0.28217097  0.36734005    -0.12000
C374        C  0.46555373  0.32201024  0.39624108     0.02000
H375        H  0.36198288  0.32770971  0.40475058     0.15000
H376        H  0.47455682  0.27041934  0.35642222     0.15000
C377        C  0.51502277  0.34604745  0.41096139     0.36600
C378        C  0.31989409  0.25172626  0.35243756     0.36500
N379        N  0.55460357  0.36522581  0.42292202    -0.43700
N380        N  0.28001436  0.23387351  0.34159256    -0.43700
C381        C  0.39715632  0.03568848  0.44711447    -0.00100
C382        C  0.41437478  0.08153497  0.45471308    -0.12000
C383        C  0.39886368  0.10540341  0.42048486     0.02100
C384        C  0.36369777  0.08289506  0.38029620    -0.00200
C385        C  0.33915268  0.03641634  0.38165675    -0.12000
C386        C  0.35563547  0.01244945  0.41489472     0.02000
H387        H  0.44483673  0.09991049  0.48106159     0.15000
H388        H  0.31063636  0.01899910  0.35256501     0.15000
C389        C  0.33205331  0.96455123  0.41103147     0.36600
C390        C  0.42367820  0.15338823  0.42276110     0.36500
N391        N  0.31289422  0.92616947  0.40781888    -0.43700
N392        N  0.44410432  0.19178876  0.42479103    -0.43700
C393        C  0.33621672  0.05868337  0.13729102    -0.00100
C394        C  0.35318221  0.07334171  0.08307978    -0.12000
C395        C  0.37331648  0.05166343  0.05220224     0.02100
C396        C  0.37788275  0.01614076  0.07724649    -0.00200
C397        C  0.35024726  0.99540998  0.12494654    -0.12000
C398        C  0.32966893  0.01681079  0.15546374     0.02000
H399        H  0.35630096  0.10475868  0.06789019     0.15000
H400        H  0.35034245  0.96608871  0.14296974     0.15000
C401        C  0.30851985  0.99858768  0.20905108     0.36600
C402        C  0.39254071  0.06876949  0.99752149     0.36500
N403        N  0.29132323  0.98338789  0.25171728    -0.43700
N404        N  0.40737004  0.08195053  0.95332526    -0.43700
C405        C  0.56740673  0.12050419  0.36295566    -0.00100
C406        C  0.58101349  0.16064509  0.39091648    -0.12000
C407        C  0.60367859  0.20112875  0.36236442     0.02100
C408        C  0.61434359  0.20165889  0.30518700    -0.00200
C409        C  0.60052249  0.16151864  0.27710781    -0.12000
C410        C  0.57646381  0.12095280  0.30521464     0.02000
H411        H  0.57328709  0.16032283  0.43509380     0.15000
H412        H  0.60760703  0.16183342  0.23274434     0.15000
C413        C  0.56236649  0.08059958  0.27393819     0.36600
C414        C  0.61599469  0.24133670  0.39307481     0.36500
N415        N  0.55089257  0.04835638  0.24866693    -0.43700
N416        N  0.62524591  0.27318441  0.41828013    -0.43700
C417        C  0.56394416  0.22383228  0.12340146    -0.00100
C418        C  0.57538304  0.21110744  0.07262603    -0.12000
C419        C  0.57070851  0.16847799  0.06682659     0.02100
C420        C  0.54363667  0.13441683  0.10633443    -0.00200
C421        C  0.52261372  0.14542688  0.15113318    -0.12000
C422        C  0.53359392  0.18999645  0.16074263     0.02000
H423        H  0.59834977  0.23694821  0.04354545     0.15000
H424        H  0.50064754  0.11993729  0.18101775     0.15000
C425        C  0.51938205  0.20084512  0.21316121     0.36600
C426        C  0.60037935  0.16354902  0.02470877     0.36500
N427        N  0.50863803  0.20967816  0.25552784    -0.43700
N428        N  0.62545681  0.16041236  0.99213720    -0.43700
C429        C  0.78013097  0.37752315  0.31129084    -0.00100
C430        C  0.82484809  0.38927201  0.28779894    -0.12000
C431        C  0.86583875  0.41128162  0.31887955     0.02100
C432        C  0.86249667  0.42151578  0.37488895    -0.00200
C433        C  0.81808805  0.41002936  0.39881609    -0.12000
C434        C  0.77682959  0.38848415  0.36720301     0.02000
H435        H  0.82795211  0.38148137  0.24465573     0.15000
H436        H  0.81577287  0.41846008  0.44188223     0.15000
C437        C  0.73188213  0.37729225  0.39338685     0.36600
C438        C  0.91088469  0.42226282  0.29266024     0.36500
N439        N  0.69590189  0.36875654  0.41430440    -0.43700
N440        N  0.94707924  0.43133534  0.27190546    -0.43700
C441        C  0.84636989  0.41237693  0.64083710    -0.00100
C442        C  0.82753030  0.43521148  0.67235793    -0.12000
C443        C  0.78307495  0.41242227  0.69995794     0.02100
C444        C  0.75590327  0.36535299  0.69698600    -0.00200
C445        C  0.77498358  0.34274457  0.66542900    -0.12000
C446        C  0.81929977  0.36552228  0.63773808     0.02000
H447        H  0.84759985  0.47108931  0.67542737     0.15000
H448        H  0.75612677  0.30678173  0.66438167     0.15000
C449        C  0.83727429  0.33978852  0.60795652     0.36600
C450        C  0.76549235  0.43865417  0.72922372     0.36500
N451        N  0.85185049  0.31919184  0.58425323    -0.43700
N452        N  0.75203430  0.46049330  0.75203540    -0.43700
C453        C  0.83943252  0.46225876  0.11391167    -0.00100
C454        C  0.80778226  0.44648144  0.06881149    -0.12000
C455        C  0.75910867  0.42889233  0.07725091     0.02100
C456        C  0.74169834  0.42489917  0.13181645    -0.00200
C457        C  0.77318675  0.45018940  0.17394552    -0.12000
C458        C  0.82225767  0.46790284  0.16587285     0.02000
H459        H  0.82062529  0.44489550  0.02755473     0.15000
H460        H  0.75976827  0.44877106  0.21596956     0.15000
C461        C  0.85316192  0.48677450  0.21290921     0.36600
C462        C  0.72730766  0.40843678  0.03130446     0.36500
N463        N  0.87788892  0.50200628  0.25065665    -0.43700
N464        N  0.70187369  0.39230974  0.99435913    -0.43700
C465        C  0.83549533  0.41348817  0.88729405    -0.00100
C466        C  0.82925956  0.37640426  0.85535817    -0.12000
C467        C  0.78783309  0.35119085  0.82436961     0.02100
C468        C  0.75007137  0.36198332  0.82431652    -0.00200
C469        C  0.75498697  0.39769972  0.85816178    -0.12000
C470        C  0.79719514  0.42378117  0.88837055     0.02000
H471        H  0.85744061  0.36710890  0.85384556     0.15000
H472        H  0.72664517  0.40676693  0.85878878     0.15000
C473        C  0.80145871  0.46285012  0.91636360     0.36600
C474        C  0.78520874  0.31402852  0.79316156     0.36500
N475        N  0.80479611  0.49436811  0.93833504    -0.43700
N476        N  0.78402265  0.28455125  0.76818796    -0.43700
C477        C  0.89959013  0.61509881  0.37976845    -0.00100
C478        C  0.87663482  0.58873163  0.42663354    -0.12000
C479        C  0.89991035  0.57204952  0.46139109     0.02100
C480        C  0.94751471  0.58266744  0.44946979    -0.00200
C481        C  0.97256696  0.61634507  0.40935163    -0.12000
C482        C  0.94859726  0.63140622  0.37323346     0.02000
H483        H  0.83875162  0.57643936  0.43183893     0.15000
H484        H  0.00957708  0.62639424  0.40072231     0.15000
C485        C  0.97346333  0.65816098  0.32525381     0.36600
C486        C  0.87211803  0.54000283  0.50395003     0.36500
N487        N  0.99345429  0.67933213  0.28664393    -0.43700
N488        N  0.84950563  0.51408206  0.53761186    -0.43700
C489        C  0.89407749  0.62577567  0.12792768    -0.00100
C490        C  0.94318997  0.64775861  0.13486935    -0.12000
C491        C  0.97213465  0.63873704  0.09883705     0.02100
C492        C  0.95075914  0.60568318  0.05764064    -0.00200
C493        C  0.90400579  0.59397339  0.04209057    -0.12000
C494        C  0.87502874  0.60275965  0.07807461     0.02000
H495        H  0.95822662  0.66744811  0.17185273     0.15000
H496        H  0.88771648  0.57136633  0.00776678     0.15000
C497        C  0.82496139  0.58325827  0.06650251     0.36600
C498        C  0.02231701  0.65908247  0.10986939     0.36500
N499        N  0.78496170  0.56766445  0.05662100    -0.43700
N500        N  0.06252821  0.67554368  0.11880204    -0.43700
C501        C  0.60731232  0.51596709  0.40796468    -0.00100
C502        C  0.63355116  0.49256620  0.41362704    -0.12000
C503        C  0.68103005  0.51191442  0.39697873     0.02100
C504        C  0.70225357  0.55464852  0.37209837    -0.00200
C505        C  0.67789236  0.58000200  0.37334331    -0.12000
C506        C  0.63098154  0.56125798  0.39198402     0.02000
H507        H  0.61673580  0.45873653  0.42973090     0.15000
H508        H  0.69448221  0.61377682  0.35700552     0.15000
C509        C  0.60843549  0.58943147  0.39562434     0.36600
C510        C  0.70736041  0.48764850  0.40637255     0.36500
N511        N  0.59046575  0.61202050  0.39946282    -0.43700
N512        N  0.72924697  0.46904163  0.41451614    -0.43700
C513        C  0.69445483  0.55601928  0.15804139    -0.00100
C514        C  0.67930790  0.51582650  0.12911073    -0.12000
C515        C  0.63333219  0.49277254  0.10849696     0.02100
C516        C  0.60153437  0.51053933  0.11541341    -0.00200
C517        C  0.61764479  0.55212375  0.14114377    -0.12000
C518        C  0.66338766  0.57473671  0.16281168     0.02000
H519        H  0.70271678  0.50091887  0.12519552     0.15000
H520        H  0.59392836  0.56661078  0.14578679     0.15000
C521        C  0.67576859  0.61509457  0.19334801     0.36600
C522        C  0.61922552  0.44958177  0.08443349     0.36500
N523        N  0.68543911  0.64727556  0.21807335    -0.43700
N524        N  0.60829536  0.41490574  0.06563730    -0.43700
C525        C  0.47605621  0.85134994  0.61434892    -0.00100
C526        C  0.46478888  0.82069355  0.57064733    -0.12000
C527        C  0.45169728  0.77607377  0.58176108     0.02100
C528        C  0.44787338  0.76136065  0.63727204    -0.00200
C529        C  0.46890015  0.79321580  0.67930125    -0.12000
C530        C  0.48246787  0.83826336  0.66843636     0.02000
H531        H  0.46310550  0.83086559  0.52810796     0.15000
H532        H  0.46727525  0.78222404  0.72226515     0.15000
C533        C  0.49801794  0.86894025  0.71440384     0.36600
C534        C  0.43377587  0.74425754  0.53723281     0.36500
N535        N  0.51068622  0.89341087  0.75136376    -0.43700
N536        N  0.41870481  0.71787746  0.50257614    -0.43700
C537        C  0.25136557  0.56788085  0.62868924    -0.00100
C538        C  0.21996990  0.54314886  0.67211213    -0.12000
C539        C  0.17080032  0.52663353  0.66613177     0.02100
C540        C  0.15294734  0.53352088  0.61524008    -0.00200
C541        C  0.18402434  0.54975766  0.56906778    -0.12000
C542        C  0.23271913  0.56599777  0.57515243     0.02000
H543        H  0.23388385  0.54327938  0.71340677     0.15000
H544        H  0.17089136  0.55256145  0.52850355     0.15000
C545        C  0.26334146  0.58730419  0.52779015     0.36600
C546        C  0.14051906  0.50718358  0.71418356     0.36500
N547        N  0.28750153  0.60437272  0.48959405    -0.43700
N548        N  0.11626454  0.49154899  0.75272545    -0.43700
C549        C  0.37158024  0.78323986  0.80684923    -0.00100
C550        C  0.37680536  0.82282320  0.78209562    -0.12000
C551        C  0.39150721  0.86126576  0.81303544     0.02100
C552        C  0.40218082  0.86084978  0.86995377    -0.00200
C553        C  0.39571819  0.82111324  0.89551857    -0.12000
C554        C  0.38040756  0.78221162  0.86443555     0.02000
H555        H  0.36983373  0.82402372  0.73799041     0.15000
H556        H  0.40420489  0.82084118  0.93928225     0.15000
C557        C  0.37321574  0.74189516  0.89286766     0.36600
C558        C  0.39487392  0.90056978  0.78528912     0.36500
N559        N  0.36726426  0.70958229  0.91579768    -0.43700
N560        N  0.39731247  0.93186518  0.76289595    -0.43700
C561        C  0.20860867  0.61840442  0.79745171    -0.00100
C562        C  0.21216786  0.60286894  0.85074076    -0.12000
C563        C  0.17262014  0.58209576  0.88524916     0.02100
C564        C  0.12869343  0.57728226  0.86678412    -0.00200
C565        C  0.12488396  0.59279965  0.81378789    -0.12000
C566        C  0.16424586  0.61310639  0.77881777     0.02000
H567        H  0.24585961  0.60642765  0.86545613     0.15000
H568        H  0.09075156  0.58829427  0.79929707     0.15000
C569        C  0.15713534  0.62634290  0.72367505     0.36600
C570        C  0.17753901  0.56310888  0.93730923     0.36500
N571        N  0.15109710  0.63680226  0.67957961    -0.43700
N572        N  0.18180798  0.54747373  0.97851083    -0.43700
C573        C  0.29017031  0.41168199  0.64862078    -0.00100
C574        C  0.32349091  0.40182209  0.67403381    -0.12000
C575        C  0.37132136  0.42558917  0.66019130     0.02100
C576        C  0.38612576  0.45745491  0.61612098    -0.00200
C577        C  0.35150427  0.46374742  0.58677031    -0.12000
C578        C  0.30391434  0.44186440  0.60343490     0.02000
H579        H  0.31300375  0.37931934  0.70961366     0.15000
H580        H  0.36187538  0.48716248  0.55227305     0.15000
C581        C  0.27003774  0.45203841  0.57540946     0.36600
C582        C  0.40401294  0.41976926  0.69663091     0.36500
N583        N  0.24268864  0.46006183  0.55329448    -0.43700
N584        N  0.42988464  0.41574379  0.72702953    -0.43700
C585        C  0.39694511  0.47475351  0.89599631    -0.00100
C586        C  0.37871626  0.43260629  0.87149924    -0.12000
C587        C  0.33203166  0.41068405  0.85243251     0.02100
C588        C  0.30299965  0.43172202  0.85606905    -0.00200
C589        C  0.32048683  0.47284737  0.88297444    -0.12000
C590        C  0.36650271  0.49403255  0.90390608     0.02000
H591        H  0.40109978  0.41668722  0.86696093     0.15000
H592        H  0.29851433  0.48927040  0.88625341     0.15000
C593        C  0.38149682  0.53610005  0.93152917     0.36600
C594        C  0.31596763  0.36767735  0.82713664     0.36500
N595        N  0.39319158  0.56953508  0.95414713    -0.43700
N596        N  0.30325226  0.33309205  0.80722076    -0.43700
C597        C  0.04085678  0.38805828  0.57073517    -0.00100
C598        C  0.01757249  0.35636727  0.61354263    -0.12000
C599        C  0.04319897  0.34184684  0.64788409     0.02100
C600        C  0.09202468  0.35894234  0.63870816    -0.00200
C601        C  0.11189381  0.38128359  0.58841065    -0.12000
C602        C  0.08625532  0.39510995  0.55341434     0.02000
H603        H  0.98148263  0.34785155  0.62528190     0.15000
H604        H  0.14919135  0.39260858  0.57992847     0.15000
C605        C  0.10974325  0.42123554  0.50438861     0.36600
C606        C  0.02043613  0.31404337  0.69589230     0.36500
N607        N  0.12854660  0.44220415  0.46514886    -0.43700
N608        N  0.00233526  0.29130131  0.73410422    -0.43700
C609        C  0.10537912  0.38239713  0.88711625    -0.00100
C610        C  0.05611164  0.36026559  0.88221121    -0.12000
C611        C  0.02841332  0.37417325  0.91345573     0.02100
C612        C  0.05078806  0.41166529  0.94864915    -0.00200
C613        C  0.09871749  0.42711159  0.96165547    -0.12000
C614        C  0.12623629  0.41294077  0.93068564     0.02000
H615        H  0.03982483  0.33576588  0.84976511     0.15000
H616        H  0.11617307  0.45444402  0.99034779     0.15000
C617        C  0.17658823  0.43330921  0.94056634     0.36600
C618        C  0.97797332  0.35288850  0.90364925     0.36500
N619        N  0.21684887  0.44943347  0.94898393    -0.43700
N620        N  0.93761401  0.33598144  0.89554886    -0.43700
C621        C  0.23902889  0.62435504  0.19227633    -0.00100
C622        C  0.20051422  0.63074319  0.21027844    -0.12000
C623        C  0.15540985  0.60968764  0.18465779     0.02100
C624        C  0.14651761  0.58083060  0.13835826    -0.00200
C625        C  0.18553801  0.57568589  0.11901995    -0.12000
C626        C  0.23097175  0.59716524  0.14455314     0.02000
H627        H  0.20556493  0.65248079  0.24527192     0.15000
H628        H  0.18033086  0.55374447  0.08442926     0.15000
C629        C  0.26793858  0.58892684  0.12175158     0.36600
C630        C  0.11924743  0.61944323  0.20686085     0.36500
N631        N  0.29715947  0.58211394  0.10245655    -0.43700
N632        N  0.09050840  0.62747891  0.22501042    -0.43700
C633        C  0.15767805  0.56936433  0.38760593    -0.00100
C634        C  0.16890410  0.54800655  0.34464889    -0.12000
C635        C  0.21063412  0.57039808  0.31218226     0.02100
C636        C  0.24262334  0.61611161  0.32119196    -0.00200
C637        C  0.23217296  0.63692811  0.36588115    -0.12000
C638        C  0.19024364  0.61426591  0.39837539     0.02000
H639        H  0.14427876  0.51366444  0.33553411     0.15000
H640        H  0.25596720  0.67162083  0.37416901     0.15000
C641        C  0.18017872  0.63832466  0.44112662     0.36600
C642        C  0.21874965  0.54509795  0.26944818     0.36500
N643        N  0.17179047  0.65748179  0.47534575    -0.43700
N644        N  0.22353289  0.52390559  0.23492867    -0.43700
C645        C  0.38253896  0.61908470  0.19096621    -0.00100
C646        C  0.41414714  0.63999236  0.14607890    -0.12000
C647        C  0.43575273  0.61815856  0.11623399     0.02100
C648        C  0.42570081  0.57393301  0.13049137    -0.00200
C649        C  0.39253005  0.55275235  0.17370448    -0.12000
C650        C  0.37085935  0.57416452  0.20299477     0.02000
H651        H  0.42338650  0.67416779  0.13554276     0.15000
H652        H  0.38288675  0.51857467  0.18481572     0.15000
C653        C  0.33624635  0.54816120  0.24489331     0.36600
C654        C  0.46938270  0.64267669  0.07272175     0.36500
N655        N  0.30940597  0.52632400  0.27880058    -0.43700
N656        N  0.49640474  0.66251908  0.03790990    -0.43700
C657        C  0.39024192  0.62662321  0.32029361    -0.00100
C658        C  0.36591050  0.59952747  0.36638914    -0.12000
C659        C  0.38529512  0.57687949  0.39829229     0.02100
C660        C  0.43025043  0.58070853  0.38478440    -0.00200
C661        C  0.45580798  0.60980714  0.34076625    -0.12000
C662        C  0.43702443  0.63352345  0.30990422     0.02000
H663        H  0.33045260  0.59426502  0.37605867     0.15000
H664        H  0.49091878  0.61431561  0.33065190     0.15000
C665        C  0.46783306  0.66699831  0.27061521     0.36600
C666        C  0.35675096  0.54788418  0.44263027     0.36500
N667        N  0.49304657  0.69430138  0.23990565    -0.43700
N668        N  0.33288304  0.52484849  0.47786484    -0.43700
C669        C  0.42748250  0.84632133  0.13350925    -0.00100
C670        C  0.38282312  0.81189235  0.11792119    -0.12000
C671        C  0.36094719  0.77020854  0.14647812     0.02100
C672        C  0.38419381  0.76059001  0.19089809    -0.00200
C673        C  0.43008190  0.79431367  0.20434406    -0.12000
C674        C  0.45097635  0.83668138  0.17755693     0.02000
H675        H  0.36360921  0.81838101  0.08493341     0.15000
H676        H  0.44948226  0.78799465  0.23722549     0.15000
C677        C  0.49686767  0.86969672  0.19619831     0.36600
C678        C  0.31295819  0.73938201  0.13188011     0.36500
N679        N  0.53360246  0.89605482  0.21153525    -0.43700
N680        N  0.27426319  0.71532124  0.11995258    -0.43700
C681        C  0.38057743  0.75844153  0.31972403    -0.00100
C682        C  0.36556952  0.79069843  0.31019131    -0.12000
C683        C  0.38519395  0.83148566  0.33888550     0.02100
C684        C  0.42132634  0.84179250  0.37976087    -0.00200
C685        C  0.43516587  0.80870957  0.39072419    -0.12000
C686        C  0.41553741  0.76787146  0.36133744     0.02000
H687        H  0.33842696  0.78418212  0.27923216     0.15000
H688        H  0.46258486  0.81521668  0.42124672     0.15000
C689        C  0.43415774  0.73747416  0.37306690     0.36600
C690        C  0.36665153  0.86174897  0.32485278     0.36500
N691        N  0.45004967  0.71398011  0.38379803    -0.43700
N692        N  0.35159339  0.88574719  0.31307361    -0.43700
loop_ 
_geom_bond_atom_site_label_1 
_geom_bond_atom_site_label_2 
_geom_bond_distance 
_geom_bond_site_symmetry_2 
_ccdc_geom_bond_type 
C1            H2   1.110       .  S
C1            C7   1.551       .  S
C1            C6   1.560       .  S
C1            C5   1.566       .  S
C3            H4   1.109       .  S
C3            C9   1.575       .  S
C3            C8   1.572       .  S
C3           C10   1.571       .  S
C5            C8   1.391       .  D
C5          C636   1.530       .  S
C6            C9   1.389       .  D
C6          C681   1.530       .  S
C7           C10   1.388       .  D
C7          C657   1.525       .  S
C8          C621   1.546       .  S
C9          C672   1.541       .  S
C10         C645   1.526       .  S
O11         Ni19   1.897       .  S
O11          C21   1.278       .  A
O12         Ni19   1.892       .  S
O12          C22   1.276       .  A
O13         Ni19   1.896       .  S
O13          C23   1.279       .  A
O14         Ni19   1.901       .  S
O14          C24   1.279       .  A
O15         Ni20   1.922       .  S
O15          C24   1.283       .  A
O16         Ni20   1.927       .  S
O16          C23   1.281       .  A
O17         Ni20   1.914       .  S
O17          C22   1.282       .  A
O18         Ni20   1.926       .  S
O18          C21   1.281       .  A
Ni19        Ni20   2.393       .  S
C21         C609   1.466       .  S
C22         C573   1.460       .  S
C23         C600   1.466       .  S
C24         C588   1.478       .  S
O25         Ni33   1.928       .  S
O25          C35   1.284       .  A
O26         Ni33   1.914       .  S
O26          C36   1.281       .  A
O27         Ni33   1.902       .  S
O27          C37   1.280       .  A
O28         Ni33   1.924       .  S
O28          C38   1.281       .  A
O29         Ni34   1.882       .  S
O29          C38   1.276       .  A
O30         Ni34   1.892       .  S
O30          C37   1.276       .  A
O31         Ni34   1.888       .  S
O31          C36   1.277       .  A
O32         Ni34   1.884       .  S
O32          C35   1.276       .  A
Ni33        Ni34   2.392       .  S
C35         C537   1.470       .  S
C36         C549   1.468       .  S
C37         C561   1.467       .  S
C38         C528   1.465       .  S
O39         Ni47   1.907       .  S
O39          C49   1.280       .  A
O40         Ni47   1.918       .  S
O40          C50   1.278       .  A
O41         Ni47   1.930       .  S
O41          C51   1.285       .  A
O42         Ni47   1.933       .  S
O42          C52   1.283       .  A
O43         Ni48   1.889       .  S
O43          C52   1.275       .  A
O44         Ni48   1.884       .  S
O44          C51   1.275       .  A
O45         Ni48   1.903       .  S
O45          C50   1.280       .  A
O46         Ni48   1.906       .  S
O46          C49   1.281       .  A
Ni47        Ni48   2.391       .  S
C49         C504   1.477       .  S
C50         C489   1.463       .  S
C51         C513   1.479       .  S
C52         C477   1.465       .  S
O53         Ni59   1.956   1_455  S
O53          C74   1.278       .  A
O54         Ni77   1.960   1_556  S
O54          C63   1.277       .  A
O55         Ni59   1.926       .  S
O55         Ni77   1.936       .  S
O55         Ni71   1.919   1_655  S
O55          H78   0.966       .  S
C56          O73   1.271       .  A
C56          O65   1.273       .  A
C56         C564   1.455       .  S
O57         Ni76   1.937       .  S
O57          C63   1.270       .  A
O58         Ni76   1.886   1_455  S
O58          C60   1.267       .  A
Ni59         O62   1.966       .  S
Ni59         O64   1.902   1_655  S
C60          O70   1.279       .  A
C60         C612   1.482       .  S
O61         Ni77   1.876       .  S
O61          C67   1.261       .  A
O62          C67   1.277       .  A
C63         C465   1.526       .  S
O64          C66   1.270   1_455  A
O65         Ni76   1.909   1_455  S
C66          O72   1.283       .  A
C66         C492   1.484       .  S
C67         C453   1.480       .  S
H68          O69   0.966       .  S
O69         Ni77   1.876   1_556  S
O69         Ni71   1.932   1_656  S
O69         Ni76   1.902       .  S
O70         Ni71   1.939   1_556  S
Ni71         O75   1.963       .  S
Ni71         O73   1.891   1_554  S
O72         Ni77   1.952       .  S
C74          O75   1.282       .  A
C74         C624   1.542       .  S
O79         Ni85   1.954       .  S
O79         C100   1.277       .  A
O80        Ni103   1.942       .  S
O80          C89   1.274       .  A
O81         Ni85   1.929       .  S
O81        Ni103   1.925   1_655  S
O81         Ni97   1.917       .  S
O81         H104   0.966       .  S
C82          O99   1.268       .  A
C82          O91   1.275       .  A
C82         C432   1.458       .  S
O83        Ni102   1.942       .  S
O83          C89   1.271       .  A
O84        Ni102   1.898       .  S
O84          C86   1.266   1_455  A
Ni85         O88   1.970   1_655  S
Ni85         O90   1.902       .  S
C86          O96   1.279       .  A
C86         C480   1.490       .  S
O87        Ni103   1.879       .  S
O87          C93   1.260       .  A
O88          C93   1.276       .  A
C89         C633   1.509       .  S
O90          C92   1.272   1_655  A
O91        Ni102   1.932   1_655  S
C92          O98   1.284       .  A
C92         C597   1.488       .  S
C93         C540   1.487       .  S
H94          O95   0.966       .  S
O95        Ni103   1.887       .  S
O95         Ni97   1.931   1_455  S
O95        Ni102   1.909       .  S
O96         Ni97   1.952       .  S
Ni97        O101   1.943       .  S
Ni97         O99   1.889       .  S
O98        Ni103   1.957       .  S
C100        O101   1.276       .  A
C100        C441   1.514       .  S
O105       Ni113   1.868       .  S
O105        C115   1.274       .  A
O106       Ni113   1.881       .  S
O106        C116   1.275       .  A
O107       Ni113   1.903       .  S
O107        C117   1.279       .  A
O108       Ni113   1.891       .  S
O108        C118   1.279       .  A
O109       Ni114   1.918       .  S
O109        C118   1.279       .  A
O110       Ni114   1.900       .  S
O110        C117   1.278       .  A
O111       Ni114   1.924       .  S
O111        C116   1.284       .  A
O112       Ni114   1.936       .  S
O112        C115   1.285       .  A
Ni113      Ni114   2.392       .  S
C115        C417   1.474       .  S
C116        C429   1.469       .  S
C117        C408   1.461       .  S
C118        C456   1.460       .  S
O119       Ni127   1.901       .  S
O119        C129   1.279       .  A
O120       Ni127   1.897       .  S
O120        C130   1.279       .  A
O121       Ni127   1.894       .  S
O121        C131   1.277       .  A
O122       Ni127   1.894       .  S
O122        C132   1.278       .  A
O123       Ni128   1.929       .  S
O123        C132   1.282       .  A
O124       Ni128   1.925       .  S
O124        C131   1.284       .  A
O125       Ni128   1.920       .  S
O125        C130   1.279       .  A
O126       Ni128   1.913       .  S
O126        C129   1.280       .  A
Ni127      Ni128   2.391       .  S
C129        C372   1.481       .  S
C130        C393   1.460       .  S
C131        C360   1.476       .  S
C132        C384   1.468       .  S
O133       Ni141   1.899       .  S
O133        C143   1.278       .  A
O134       Ni141   1.897       .  S
O134        C144   1.278       .  A
O135       Ni141   1.888       .  S
O135        C145   1.276       .  A
O136       Ni141   1.894       .  S
O136        C146   1.277       .  A
O137       Ni142   1.922       .  S
O137        C146   1.280       .  A
O138       Ni142   1.921       .  S
O138        C145   1.282       .  A
O139       Ni142   1.924       .  S
O139        C144   1.281       .  A
O140       Ni142   1.916       .  S
O140        C143   1.283       .  A
Ni141      Ni142   2.392       .  S
C143        C336   1.483       .  S
C144        C321   1.464       .  S
C145        C309   1.462       .  S
C146        C345   1.461       .  S
O147       Ni153   1.931       .  S
O147        C168   1.270       .  A
O148       Ni171   1.960       .  S
O148        C157   1.279       .  A
O149       Ni153   1.908       .  S
O149       Ni171   1.927   1_565  S
O149       Ni165   1.884       .  S
O149        H172   0.967       .  S
C150        O167   1.265       .  A
C150        O159   1.274       .  A
C150        C525   1.483       .  S
O151       Ni170   1.957   1_545  S
O151        C157   1.277       .  A
O152       Ni170   1.909   1_545  S
O152        C154   1.276   1_545  A
Ni153       O156   1.925   1_565  S
Ni153       O158   1.897       .  S
C154        O164   1.286       .  A
C154        C324   1.488       .  S
O155       Ni171   1.888       .  S
O155        C161   1.270       .  A
O156        C161   1.274       .  A
C157        C297   1.534       .  S
O158        C160   1.265   1_565  A
O159       Ni170   1.957       .  S
C160        O166   1.278       .  A
C160        C381   1.484       .  S
C161        C405   1.463       .  S
H162        O163   0.966       .  S
O163       Ni171   1.926   1_565  S
O163       Ni165   1.940       .  S
O163       Ni170   1.926       .  S
O164       Ni165   1.956       .  S
Ni165       O169   1.964       .  S
Ni165       O167   1.889       .  S
O166       Ni171   1.941       .  S
C168        O169   1.282       .  A
C168        C684   1.531       .  S
O173       Ni179   1.946       .  S
O173        C194   1.274       .  A
O174       Ni197   1.936       .  S
O174        C183   1.273       .  A
O175       Ni179   1.919       .  S
O175       Ni197   1.930       .  S
O175       Ni191   1.899       .  S
O175        H198   0.967       .  S
C176        O193   1.262       .  A
C176        O185   1.272       .  A
C176        C312   1.468       .  S
O177       Ni196   1.936       .  S
O177        C183   1.271       .  A
O178       Ni196   1.891       .  S
O178        C180   1.269       .  A
Ni179       O182   1.934       .  S
Ni179       O184   1.909       .  S
C180        O190   1.279       .  A
C180        C576   1.485       .  S
O181       Ni197   1.890       .  S
O181        C187   1.265       .  A
O182        C187   1.274       .  A
C183        C285   1.497       .  S
O184        C186   1.272       .  A
O185       Ni196   1.928       .  S
C186        O192   1.272       .  A
C186        C501   1.475       .  S
C187        C369   1.454       .  S
H188        O189   0.965       .  S
O189       Ni197   1.915       .  S
O189       Ni191   1.934       .  S
O189       Ni196   1.918       .  S
O190       Ni191   1.942       .  S
Ni191       O195   1.944       .  S
Ni191       O193   1.886       .  S
O192       Ni197   1.929       .  S
C194        O195   1.276       .  A
C194        C660   1.510       .  S
O199       Ni205   1.933   1_545  S
O199        C220   1.271       .  A
O200       Ni223   1.950       .  S
O200        C209   1.280       .  A
O201       Ni205   1.902       .  S
O201       Ni223   1.931   1_556  S
O201       Ni217   1.883   1_566  S
O201        H224   0.965       .  S
C202        O219   1.252       .  A
C202        O211   1.279       .  A
C202        C420   1.495       .  S
O203       Ni222   1.963       .  S
O203        C209   1.282       .  A
O204       Ni222   1.899       .  S
O204        C206   1.274   1_565  A
Ni205       O208   1.918       .  S
Ni205       O210   1.891       .  S
C206        O216   1.286       .  A
C206        C396   1.482       .  S
O207       Ni223   1.896   1_556  S
O207        C213   1.270       .  A
O208        C213   1.273       .  A
C209        C669   1.527       .  S
O210        C212   1.266       .  A
O211       Ni222   1.981   1_545  S
C212        O218   1.278       .  A
C212        C348   1.479       .  S
C213        C552   1.462       .  S
H214        O215   0.966       .  S
O215       Ni223   1.919       .  S
O215       Ni217   1.913   1_565  S
O215       Ni222   1.920       .  S
O216       Ni217   1.958       .  S
Ni217       O221   1.947   1_554  S
Ni217       O219   1.872       .  S
O218       Ni223   1.937   1_556  S
C220        O221   1.275       .  A
C220        C276   1.516       .  S
O225       Ni231   1.937       .  S
O225        C246   1.273       .  A
O226       Ni249   1.943       .  S
O226        C235   1.275       .  A
O227       Ni231   1.914       .  S
O227       Ni249   1.928   1_556  S
O227       Ni243   1.917       .  S
O227        H250   0.966       .  S
C228        O245   1.265       .  A
C228        O237   1.273       .  A
C228        C357   1.467       .  S
O229       Ni248   1.939       .  S
O229        C235   1.276       .  A
O230       Ni248   1.902       .  S
O230        C232   1.274       .  A
Ni231       O234   1.929       .  S
Ni231       O236   1.912       .  S
C232        O242   1.279       .  A
C232        C516   1.481       .  S
O233       Ni249   1.897   1_556  S
O233        C239   1.264       .  A
O234        C239   1.272       .  A
C235        C648   1.521       .  S
O236        C238   1.276       .  A
O237       Ni248   1.930       .  S
C238        O244   1.276       .  A
C238        C585   1.481       .  S
C239        C333   1.455       .  S
H240        O241   0.966       .  S
O241       Ni249   1.914       .  S
O241       Ni243   1.928   1_554  S
O241       Ni248   1.909       .  S
O242       Ni243   1.940   1_554  S
Ni243       O247   1.947       .  S
Ni243       O245   1.898   1_556  S
O244       Ni249   1.933   1_556  S
C246        O247   1.278       .  A
C246        C261   1.514       .  S
C251        H252   1.111       .  S
C251        C257   1.554       .  S
C251        C256   1.566       .  S
C251        C255   1.555       .  S
C253        H254   1.103       .  S
C253        C259   1.578       .  S
C253        C258   1.575       .  S
C253        C260   1.562       .  S
C255        C258   1.382       .  D
C255        C468   1.527       .  S
C256        C259   1.403       .  D
C256        C273   1.524       .  S
C257        C260   1.385       .  D
C257        C264   1.521       .  S
C258        C444   1.528       .  S
C259        C300   1.568       .  S
C260        C288   1.523       .  S
C261        C262   1.408       .  A
C261        C266   1.419       .  A
C262        C263   1.418       .  A
C262        H267   1.084       .  S
C263        C264   1.419       .  A
C263        C270   1.441       .  S
C264        C265   1.405       .  A
C265        C266   1.412       .  A
C265        H268   1.081       .  S
C266        C269   1.444       .  S
C269        N271   1.157       .  T
C270        N272   1.157       .  T
C273        C274   1.411       .  A
C273        C278   1.415       .  A
C274        C275   1.417       .  A
C274        H279   1.079       .  S
C275        C276   1.417       .  A
C275        C282   1.442       .  S
C276        C277   1.413       .  A
C277        C278   1.409       .  A
C277        H280   1.084       .  S
C278        C281   1.443       .  S
C281        N283   1.157       .  T
C282        N284   1.157       .  T
C285        C286   1.402       .  A
C285        C290   1.411       .  A
C286        C287   1.412       .  A
C286        H291   1.085       .  S
C287        C288   1.421       .  A
C287        C294   1.439       .  S
C288        C289   1.410       .  A
C289        C290   1.410       .  A
C289        H292   1.080       .  S
C290        C293   1.442       .  S
C293        N295   1.157       .  T
C294        N296   1.157       .  T
C297        C298   1.410       .  A
C297        C302   1.417       .  A
C298        C299   1.427       .  A
C298        H303   1.085       .  S
C299        C300   1.433       .  A
C299        C306   1.439       .  S
C300        C301   1.421       .  A
C301        C302   1.422       .  A
C301        H304   1.081       .  S
C302        C305   1.443       .  S
C305        N307   1.157       .  T
C306        N308   1.157       .  T
C309        C310   1.400       .  A
C309        C314   1.410       .  A
C310        C311   1.396       .  A
C310        H315   1.085       .  S
C311        C312   1.413       .  A
C311        C318   1.445       .  S
C312        C313   1.402       .  A
C313        C314   1.395       .  A
C313        H316   1.085       .  S
C314        C317   1.445       .  S
C317        N319   1.157       .  T
C318        N320   1.157       .  T
C321        C322   1.401       .  A
C321        C326   1.404       .  A
C322        C323   1.398       .  A
C322        H327   1.085       .  S
C323        C324   1.415       .  A
C323        C330   1.444       .  S
C324        C325   1.411       .  A
C325        C326   1.400       .  A
C325        H328   1.084   1_565  S
C326        C329   1.443       .  S
C329        N331   1.157       .  T
C330        N332   1.157       .  T
C333        C334   1.396       .  A
C333        C338   1.403       .  A
C334        C335   1.394       .  A
C334        H339   1.086       .  S
C335        C336   1.420       .  A
C335        C342   1.446       .  S
C336        C337   1.409       .  A
C337        C338   1.397       .  A
C337        H340   1.084       .  S
C338        C341   1.444       .  S
C341        N343   1.157       .  T
C342        N344   1.158       .  T
C345        C346   1.396       .  A
C345        C350   1.409       .  A
C346        C347   1.398       .  A
C346        H351   1.082       .  S
C347        C348   1.419       .  A
C347        C354   1.445   1_565  S
C348        C349   1.403       .  A
C349        C350   1.393       .  A
C349        H352   1.085       .  S
C350        C353   1.444       .  S
C353        N355   1.157       .  T
C354        N356   1.157       .  T
C357        C358   1.401       .  A
C357        C362   1.407       .  A
C358        C359   1.396       .  A
C358        H363   1.085       .  S
C359        C360   1.413       .  A
C359        C366   1.444       .  S
C360        C361   1.408       .  A
C361        C362   1.399       .  A
C361        H364   1.085       .  S
C362        C365   1.444       .  S
C365        N367   1.157       .  T
C366        N368   1.157       .  T
C369        C370   1.396       .  A
C369        C374   1.403       .  A
C370        C371   1.396       .  A
C370        H375   1.085       .  S
C371        C372   1.418       .  A
C371        C378   1.444       .  S
C372        C373   1.410       .  A
C373        C374   1.395       .  A
C373        H376   1.084       .  S
C374        C377   1.445       .  S
C377        N379   1.157       .  T
C378        N380   1.157       .  T
C381        C382   1.403       .  A
C381        C386   1.419       .  A
C382        C383   1.394       .  A
C382        H387   1.085       .  S
C383        C384   1.410       .  A
C383        C390   1.445       .  S
C384        C385   1.398       .  A
C385        C386   1.403       .  A
C385        H388   1.083       .  S
C386        C389   1.444   1_545  S
C389        N391   1.157       .  T
C390        N392   1.157       .  T
C393        C394   1.401       .  A
C393        C398   1.404       .  A
C394        C395   1.397       .  A
C394        H399   1.085       .  S
C395        C396   1.412       .  A
C395        C402   1.443   1_554  S
C396        C397   1.408   1_545  A
C397        C398   1.396   1_565  A
C397        H400   1.084       .  S
C398        C401   1.443   1_545  S
C401        N403   1.157       .  T
C402        N404   1.157       .  T
C405        C406   1.401       .  A
C405        C410   1.412       .  A
C406        C407   1.392       .  A
C406        H411   1.085       .  S
C407        C408   1.409       .  A
C407        C414   1.442       .  S
C408        C409   1.401       .  A
C409        C410   1.392       .  A
C409        H412   1.085       .  S
C410        C413   1.445       .  S
C413        N415   1.157       .  T
C414        N416   1.156       .  T
C417        C418   1.398       .  A
C417        C422   1.415       .  A
C418        C419   1.394       .  A
C418        H423   1.087       .  S
C419        C420   1.424       .  A
C419        C426   1.446       .  S
C420        C421   1.407       .  A
C421        C422   1.408       .  A
C421        H424   1.084       .  S
C422        C425   1.443       .  S
C425        N427   1.157       .  T
C426        N428   1.157   1_554  T
C429        C430   1.405       .  A
C429        C434   1.411       .  A
C430        C431   1.388       .  A
C430        H435   1.085       .  S
C431        C432   1.406       .  A
C431        C438   1.447       .  S
C432        C433   1.402       .  A
C433        C434   1.399       .  A
C433        H436   1.085       .  S
C434        C437   1.442       .  S
C437        N439   1.157       .  T
C438        N440   1.157       .  T
C441        C442   1.407       .  A
C441        C446   1.416       .  A
C442        C443   1.418       .  A
C442        H447   1.084       .  S
C443        C444   1.423       .  A
C443        C450   1.442       .  S
C444        C445   1.406       .  A
C445        C446   1.416       .  A
C445        H448   1.082       .  S
C446        C449   1.443       .  S
C449        N451   1.157       .  T
C450        N452   1.157       .  T
C453        C454   1.409       .  A
C453        C458   1.410       .  A
C454        C455   1.393       .  A
C454        H459   1.081       .  S
C455        C456   1.400       .  A
C455        C462   1.444       .  S
C456        C457   1.408       .  A
C457        C458   1.403       .  A
C457        H460   1.085       .  S
C458        C461   1.443       .  S
C461        N463   1.157       .  T
C462        N464   1.157   1_554  T
C465        C466   1.413       .  A
C465        C470   1.420       .  A
C466        C467   1.411       .  A
C466        H471   1.084       .  S
C467        C468   1.415       .  A
C467        C474   1.442       .  S
C468        C469   1.413       .  A
C469        C470   1.423       .  A
C469        H472   1.084       .  S
C470        C473   1.442       .  S
C473        N475   1.157       .  T
C474        N476   1.157       .  T
C477        C478   1.403       .  A
C477        C482   1.402       .  A
C478        C479   1.399       .  A
C478        H483   1.086       .  S
C479        C480   1.416       .  A
C479        C486   1.446       .  S
C480        C481   1.414       .  A
C481        C482   1.400       .  A
C481        H484   1.084   1_655  S
C482        C485   1.444       .  S
C485        N487   1.157       .  T
C486        N488   1.158       .  T
C489        C490   1.398       .  A
C489        C494   1.409       .  A
C490        C491   1.400       .  A
C490        H495   1.084       .  S
C491        C492   1.417       .  A
C491        C498   1.444   1_655  S
C492        C493   1.405       .  A
C493        C494   1.395       .  A
C493        H496   1.085       .  S
C494        C497   1.445       .  S
C497        N499   1.157       .  T
C498        N500   1.157       .  T
C501        C502   1.405       .  A
C501        C506   1.411       .  A
C502        C503   1.397       .  A
C502        H507   1.084       .  S
C503        C504   1.411       .  A
C503        C510   1.443       .  S
C504        C505   1.405       .  A
C505        C506   1.396       .  A
C505        H508   1.084       .  S
C506        C509   1.445       .  S
C509        N511   1.157       .  T
C510        N512   1.157       .  T
C513        C514   1.408       .  A
C513        C518   1.411       .  A
C514        C515   1.396       .  A
C514        H519   1.085       .  S
C515        C516   1.413       .  A
C515        C522   1.445       .  S
C516        C517   1.407       .  A
C517        C518   1.398       .  A
C517        H520   1.085       .  S
C518        C521   1.444       .  S
C521        N523   1.157       .  T
C522        N524   1.157       .  T
C525        C526   1.408       .  A
C525        C530   1.413       .  A
C526        C527   1.396       .  A
C526        H531   1.083       .  S
C527        C528   1.402       .  A
C527        C534   1.442       .  S
C528        C529   1.407       .  A
C529        C530   1.405       .  A
C529        H532   1.085       .  S
C530        C533   1.444       .  S
C533        N535   1.158       .  T
C534        N536   1.156       .  T
C537        C538   1.410       .  A
C537        C542   1.405       .  A
C538        C539   1.407       .  A
C538        H543   1.085       .  S
C539        C540   1.411       .  A
C539        C546   1.443       .  S
C540        C541   1.410       .  A
C541        C542   1.394       .  A
C541        H544   1.081       .  S
C542        C545   1.445       .  S
C545        N547   1.157       .  T
C546        N548   1.157       .  T
C549        C550   1.403       .  A
C549        C554   1.413       .  A
C550        C551   1.387       .  A
C550        H555   1.085       .  S
C551        C552   1.409       .  A
C551        C558   1.446       .  S
C552        C553   1.403       .  A
C553        C554   1.399       .  A
C553        H556   1.085       .  S
C554        C557   1.444       .  S
C557        N559   1.157       .  T
C558        N560   1.157       .  T
C561        C562   1.403       .  A
C561        C566   1.416       .  A
C562        C563   1.389       .  A
C562        H567   1.085       .  S
C563        C564   1.407       .  A
C563        C570   1.443       .  S
C564        C565   1.399       .  A
C565        C566   1.390       .  A
C565        H568   1.085       .  S
C566        C569   1.445       .  S
C569        N571   1.157       .  T
C570        N572   1.156       .  T
C573        C574   1.396       .  A
C573        C578   1.406       .  A
C574        C575   1.391       .  A
C574        H579   1.083       .  S
C575        C576   1.419       .  A
C575        C582   1.444       .  S
C576        C577   1.409       .  A
C577        C578   1.399       .  A
C577        H580   1.081       .  S
C578        C581   1.446       .  S
C581        N583   1.158       .  T
C582        N584   1.157       .  T
C585        C586   1.405       .  A
C585        C590   1.416       .  A
C586        C587   1.399       .  A
C586        H591   1.085       .  S
C587        C588   1.413       .  A
C587        C594   1.444       .  S
C588        C589   1.404       .  A
C589        C590   1.396       .  A
C589        H592   1.084       .  S
C590        C593   1.446       .  S
C593        N595   1.158       .  T
C594        N596   1.157       .  T
C597        C598   1.413       .  A
C597        C602   1.415       .  A
C598        C599   1.402       .  A
C598        H603   1.084   1_455  S
C599        C600   1.402       .  A
C599        C606   1.443       .  S
C600        C601   1.401       .  A
C601        C602   1.397       .  A
C601        H604   1.085       .  S
C602        C605   1.445       .  S
C605        N607   1.157       .  T
C606        N608   1.157       .  T
C609        C610   1.397       .  A
C609        C614   1.410       .  A
C610        C611   1.400       .  A
C610        H615   1.085       .  S
C611        C612   1.420       .  A
C611        C618   1.445   1_455  S
C612        C613   1.403       .  A
C613        C614   1.397       .  A
C613        H616   1.084       .  S
C614        C617   1.444       .  S
C617        N619   1.157       .  T
C618        N620   1.157       .  T
C621        C622   1.412       .  A
C621        C626   1.423       .  A
C622        C623   1.418       .  A
C622        H627   1.084       .  S
C623        C624   1.426       .  A
C623        C630   1.443       .  S
C624        C625   1.414       .  A
C625        C626   1.426       .  A
C625        H628   1.080       .  S
C626        C629   1.441       .  S
C629        N631   1.157       .  T
C630        N632   1.157       .  T
C633        C634   1.403       .  A
C633        C638   1.415       .  A
C634        C635   1.413       .  A
C634        H639   1.085       .  S
C635        C636   1.425       .  A
C635        C642   1.441       .  S
C636        C637   1.411       .  A
C637        C638   1.419       .  A
C637        H640   1.084       .  S
C638        C641   1.442       .  S
C641        N643   1.157       .  T
C642        N644   1.157       .  T
C645        C646   1.412       .  A
C645        C650   1.419       .  A
C646        C647   1.422       .  A
C646        H651   1.084       .  S
C647        C648   1.422       .  A
C647        C654   1.442       .  S
C648        C649   1.408       .  A
C649        C650   1.406       .  A
C649        H652   1.085       .  S
C650        C653   1.442       .  S
C653        N655   1.157       .  T
C654        N656   1.157       .  T
C657        C658   1.408       .  A
C657        C662   1.420       .  A
C658        C659   1.414       .  A
C658        H663   1.084       .  S
C659        C660   1.416       .  A
C659        C666   1.439       .  S
C660        C661   1.408       .  A
C661        C662   1.414       .  A
C661        H664   1.085       .  S
C662        C665   1.443       .  S
C665        N667   1.157       .  T
C666        N668   1.156       .  T
C669        C670   1.412       .  A
C669        C674   1.419       .  A
C670        C671   1.422       .  A
C670        H675   1.084       .  S
C671        C672   1.420       .  A
C671        C678   1.441       .  S
C672        C673   1.416       .  A
C673        C674   1.420       .  A
C673        H676   1.084       .  S
C674        C677   1.443       .  S
C677        N679   1.157       .  T
C678        N680   1.157       .  T
C681        C682   1.404       .  A
C681        C686   1.421       .  A
C682        C683   1.412       .  A
C682        H687   1.085       .  S
C683        C684   1.431       .  A
C683        C690   1.444       .  S
C684        C685   1.410       .  A
C685        C686   1.422       .  A
C685        H688   1.084       .  S
C686        C689   1.439       .  S
C689        N691   1.156       .  T
C690        N692   1.157       .  T
