geometry optimzed in LAMMPS
_audit_creation_date              2020-11-30 
_audit_creation_method            'lammps2cif' 
_symmetry_space_group_name_H-M    'P1' 
_symmetry_Int_Tables_number       1 
_symmetry_cell_setting            triclinic 
loop_ 
_symmetry_equiv_pos_as_xyz 
  x,y,z 
_cell_length_a                    26.97099284 
_cell_length_b                    29.817534848475 
_cell_length_c                    29.591589848527168 
_cell_angle_alpha                 89.6934748329162 
_cell_angle_beta                  89.87738262488514 
_cell_angle_gamma                 90.2056345664518 
loop_ 
_atom_site_label 
_atom_site_type_symbol 
_atom_site_fract_x 
_atom_site_fract_y 
_atom_site_fract_z 
_atom_site_charge 
O1          O  0.08397051  0.96808208  0.12123016    -0.78000
C2          C  0.97419053  0.09728692  0.10098095     0.83100
O3          O  0.94573737  0.94364257  0.02606796    -0.79100
O4          O  0.98509237  0.09167195  0.95050514    -0.80600
O5          O  0.15022237  0.05355993  0.98167487    -0.80400
O6          O  0.14297345  0.96051604  0.06801268    -0.79000
Zn7        Zn  0.02111722  0.99980671  0.09115478     1.55700
O8          O  0.09394655  0.10857765  0.98361349    -0.80400
Cd9        Cd  0.11276690  0.99595000  0.01024934     1.59700
Cd10       Cd  0.99557727  0.98098829  0.98715089     1.59600
O11         O  0.11768088  0.94876442  0.95706494    -0.80400
O12         O  0.04101194  0.01440230  0.02645398    -1.90900
Cd13       Cd  0.02920362  0.07997196  0.00920415     1.59900
O14         O  0.03685414  0.93860943  0.94759894    -0.80300
O15         O  0.99532653  0.11149192  0.06470791    -0.79000
C16         C  0.93550020  0.93591809  0.06775128     0.83500
C17         C  0.12627460  0.95226096  0.10808910     0.83200
O18         O  0.98399890  0.05810584  0.11748014    -0.77900
C19         C  0.13623478  0.09369215  0.97169784     0.84000
O20         O  0.96296167  0.95243103  0.09857931    -0.78000
C21         C  0.08169154  0.92899250  0.93769907     0.84100
C22         C  0.96215005  0.06292290  0.92666347     0.84500
O23         O  0.95924399  0.02197154  0.93983539    -0.80500
C24         C  0.03340782  0.34493334  0.09299521     0.03700
C25         C  0.00143841  0.31559767  0.07121125    -0.12500
C26         C  0.00000203  0.27035207  0.08132010     0.01200
C27         C  0.03323572  0.25235952  0.11332710    -0.11000
C28         C  0.06793899  0.28050191  0.13510648     0.03700
C29         C  0.06820021  0.32735571  0.12430838    -0.10400
H30         H  0.97608951  0.32838346  0.04574406     0.09200
H31         H  0.03206459  0.21683345  0.12118861     0.06800
H32         H  0.09461220  0.34958890  0.14030437     0.06600
C33         C  0.86826128  0.17786147  0.14440657     0.03700
C34         C  0.83767591  0.16793623  0.10702705    -0.12500
C35         C  0.86010386  0.15278410  0.06760455     0.01200
C36         C  0.89178687  0.11685392  0.07596778    -0.11000
C37         C  0.92584167  0.12063778  0.11198111     0.03700
C38         C  0.91484642  0.15358720  0.14662003    -0.10400
H39         H  0.80096759  0.18202995  0.10411817     0.09200
H40         H  0.90069770  0.09528325  0.04767175     0.06800
H41         H  0.94129813  0.16047362  0.17313891     0.06600
C42         C  0.83185532  0.12307894  0.45209721     0.03700
C43         C  0.79814430  0.14542752  0.48074157    -0.12500
C44         C  0.77030947  0.18179234  0.46428534     0.01200
C45         C  0.77612259  0.19641880  0.42044378    -0.11000
C46         C  0.80210996  0.17136377  0.38935850     0.03700
C47         C  0.83241029  0.13554824  0.40503248    -0.10400
H48         H  0.79243460  0.13397245  0.51516735     0.09200
H49         H  0.75379585  0.22458118  0.40889367     0.06800
H50         H  0.85504455  0.11736533  0.38113053     0.06600
C51         C  0.61590737  0.10114153  0.57361392     0.03700
C52         C  0.65403249  0.09993001  0.60768875    -0.12500
C53         C  0.68003289  0.14060472  0.61916114     0.01200
C54         C  0.66854310  0.17960677  0.59481949    -0.11000
C55         C  0.63111467  0.18066836  0.56176384     0.03700
C56         C  0.60109127  0.14297700  0.55732793    -0.10400
H57         H  0.66295643  0.06874976  0.62462025     0.09200
H58         H  0.68982596  0.20967356  0.60182635     0.06800
H59         H  0.56910261  0.14502294  0.53553001     0.06600
O60         O  0.70130881  0.30753490  0.16030060    -0.78000
C61         C  0.84738378  0.21357657  0.17617478     0.83100
O62         O  0.66877783  0.18050494  0.23632905    -0.79100
O63         O  0.82709477  0.20792674  0.32195497    -0.80600
O64         O  0.79750225  0.36539472  0.28337974    -0.80400
O65         O  0.68435286  0.36214082  0.20788063    -0.79000
Zn66       Zn  0.74367702  0.25722951  0.18735355     1.55700
O67         O  0.84993740  0.31278615  0.30866125    -0.80400
Cd68       Cd  0.73168286  0.33302969  0.26154980     1.59700
Cd69       Cd  0.70420636  0.22664714  0.28363436     1.59600
O70         O  0.68877089  0.33822642  0.31970834    -0.80400
O71         O  0.75151432  0.26748295  0.25117563    -1.90900
Cd72       Cd  0.82414023  0.25497791  0.27029949     1.59900
O73         O  0.65983260  0.26833065  0.32741420    -0.80300
O74         O  0.86159885  0.21814672  0.21730536    -0.79000
C75         C  0.67622349  0.17476527  0.19360092     0.83500
C76         C  0.67752089  0.34371116  0.16922475     0.83200
O77         O  0.81080311  0.23689331  0.16095931    -0.77900
C78         C  0.83155529  0.35251297  0.31122699     0.84000
O79         O  0.70275576  0.20249134  0.17155406    -0.78000
C80         C  0.66144912  0.30976389  0.34016567     0.84100
C81         C  0.79284614  0.18669715  0.34240691     0.84500
O82         O  0.74735683  0.18879679  0.32965605    -0.80500
C83         C  0.90656950  0.60330524  0.58516270     0.03700
C84         C  0.92234952  0.64478126  0.56864870    -0.12500
C85         C  0.88908519  0.67990971  0.56466459     0.01200
C86         C  0.84739252  0.67955249  0.59320865    -0.11000
C87         C  0.83182504  0.64115544  0.61767728     0.03700
C88         C  0.86162803  0.60132269  0.61213668    -0.10400
H89         H  0.95692586  0.64686196  0.54992124     0.09200
H90         H  0.82470191  0.70922686  0.59372873     0.06800
H91         H  0.84970295  0.56986580  0.62703696     0.06600
C92         C  0.68249296  0.61920983  0.45370186     0.03700
C93         C  0.67341716  0.63513235  0.40863863    -0.12500
C94         C  0.71117862  0.65905577  0.38471203     0.01200
C95         C  0.75630990  0.66659036  0.40569106    -0.11000
C96         C  0.76397707  0.65465988  0.45013140     0.03700
C97         C  0.72801499  0.63013433  0.47417418    -0.10400
H98         H  0.63777943  0.62941016  0.39288280     0.09200
H99         H  0.78514932  0.68548804  0.38817258     0.06800
H100        H  0.73492835  0.62071554  0.50901881     0.06600
O101        O  0.08084706  0.39969890  0.45922357    -0.78000
C102        C  0.98263308  0.39476963  0.58337955     0.83100
O103        O  0.94560474  0.48664956  0.43713811    -0.79100
O104        O  0.95960231  0.53904909  0.59526899    -0.80600
O105        O  0.13866667  0.53022311  0.56782978    -0.80400
O106        O  0.14522373  0.44109656  0.48118231    -0.79000
Zn107      Zn  0.02402956  0.42489176  0.49553971     1.55700
O108        O  0.07897163  0.52083015  0.62003489    -0.80400
Cd109      Cd  0.10992046  0.49951816  0.50732380     1.59700
Cd110      Cd  0.99391940  0.52626542  0.47881285     1.59600
O111        O  0.12307439  0.54716524  0.45634535    -0.80400
O112        O  0.03611017  0.48644424  0.51646348    -1.90900
Cd113      Cd  0.01688367  0.49269589  0.58388710     1.59900
O114        O  0.04519813  0.56730373  0.44040776    -0.80300
O115        O  0.97996342  0.43234647  0.60382174    -0.79000
C116        C  0.93708381  0.44431278  0.43287721     0.83500
C117        C  0.12713741  0.40760323  0.45932973     0.83200
O118        O  0.01531251  0.38832006  0.55279168    -0.77900
C119        C  0.12175652  0.53639845  0.60806276     0.84000
O120        O  0.96352713  0.41617034  0.45415486    -0.78000
C121        C  0.09263237  0.57193057  0.43502992     0.84100
C122        C  0.93788104  0.56522323  0.56766067     0.84500
O123        O  0.94818141  0.56423748  0.52493420    -0.80500
C124        C  0.44059880  0.78079072  0.13265730     0.03700
C125        C  0.47881567  0.75742012  0.10997779    -0.12500
C126        C  0.51483127  0.78139703  0.08460112     0.01200
C127        C  0.51316971  0.82747086  0.08338923    -0.11000
C128        C  0.47408421  0.85124146  0.10175060     0.03700
C129        C  0.43725146  0.82816783  0.12672893    -0.10400
H130        H  0.47989794  0.72111429  0.11119890     0.09200
H131        H  0.53915514  0.84516765  0.06156847     0.06800
H132        H  0.40584499  0.84634454  0.14014371     0.06600
C133        C  0.61601922  0.68170362  0.12684343     0.03700
C134        C  0.57386882  0.65230929  0.12796319    -0.12500
C135        C  0.55920536  0.63002065  0.08749578     0.01200
C136        C  0.58786020  0.63716667  0.04814279    -0.11000
C137        C  0.62107882  0.67295852  0.04524417     0.03700
C138        C  0.64172842  0.68743072  0.08607381    -0.10400
H139        H  0.55273111  0.64784831  0.15879870     0.09200
H140        H  0.57736883  0.62112655  0.01682242     0.06800
H141        H  0.67335849  0.70996207  0.08513509     0.06600
C142        C  0.13644839  0.09643026  0.33601369     0.03700
C143        C  0.17520999  0.06545416  0.33933549    -0.12500
C144        C  0.17252516  0.02783982  0.36726390     0.01200
C145        C  0.13591618  0.02575590  0.40040851    -0.11000
C146        C  0.09598257  0.05570689  0.40022165     0.03700
C147        C  0.09565085  0.09138643  0.36704525    -0.10400
H148        H  0.20560761  0.06734768  0.31550107     0.09200
H149        H  0.13439568  0.99615855  0.42180778     0.06800
H150        H  0.06455056  0.11415195  0.36529521     0.06600
C151        C  0.15790557  0.92643611  0.14204079     0.03700
C152        C  0.16799855  0.94838800  0.18289754    -0.12500
C153        C  0.19523555  0.92740014  0.21718094     0.01200
C154        C  0.21301140  0.88445740  0.21179185    -0.11000
C155        C  0.20146744  0.85902803  0.17396529     0.03700
C156        C  0.17468890  0.88046772  0.13756160    -0.10400
H157        H  0.15321599  0.98162560  0.18880622     0.09200
H158        H  0.23284140  0.86919409  0.23986163     0.06800
H159        H  0.16519728  0.86148113  0.10772175     0.06600
O160        O  0.36007017  0.74844240  0.14305128    -0.78000
C161        C  0.22405447  0.64680685  0.15342177     0.83100
O162        O  0.20129230  0.79073861  0.21625507    -0.79100
O163        O  0.22795117  0.64065789  0.30197327    -0.80600
O164        O  0.38383436  0.67885432  0.30472088    -0.80400
O165        O  0.41175364  0.74892543  0.20253568    -0.79000
Zn166      Zn  0.29058629  0.73297679  0.16848935     1.55700
O167        O  0.34385218  0.62301768  0.27028287    -0.80400
Cd168      Cd  0.36527437  0.73153063  0.25807148     1.59700
Cd169      Cd  0.24461099  0.75166402  0.26126020     1.59600
O170        O  0.36537840  0.79017716  0.29797780    -0.80400
O171        O  0.29636293  0.71638006  0.23237699    -1.90900
Cd172      Cd  0.27729606  0.65128431  0.24647498     1.59900
O173        O  0.28372648  0.79780339  0.29798251    -0.80300
O174        O  0.23445622  0.62643004  0.19056414    -0.79000
C175        C  0.21652569  0.81057329  0.18024599     0.83500
C176        C  0.40257676  0.75672594  0.16059991     0.83200
O177        O  0.24765248  0.68250401  0.14096070    -0.77900
C178        C  0.36894173  0.63798613  0.30412464     0.84000
O179        O  0.25256575  0.79386011  0.15800213    -0.78000
C180        C  0.32668608  0.81119902  0.31025193     0.84100
C181        C  0.19984533  0.67012906  0.31938366     0.84500
O182        O  0.20281712  0.71103101  0.30563218    -0.80500
O183        O  0.26170605  0.19682376  0.14465479    -0.78000
C184        C  0.10647517  0.26063525  0.16564321     0.83100
O185        O  0.29996932  0.30333024  0.22578829    -0.79100
O186        O  0.14376199  0.28006840  0.31475049    -0.80600
O187        O  0.17430704  0.12160046  0.26697339    -0.80400
O188        O  0.27980505  0.13724853  0.18727043    -0.79000
Zn189      Zn  0.21737947  0.24162934  0.17509685     1.55700
O190        O  0.12532216  0.17103048  0.30170574    -0.80400
Cd191      Cd  0.23818303  0.15695988  0.24613030     1.59700
Cd192      Cd  0.26407559  0.25727769  0.26834507     1.59600
O193        O  0.28916800  0.14742335  0.30048487    -0.80400
O194        O  0.21366409  0.22115610  0.23770768    -1.90900
Cd195      Cd  0.14359614  0.23063558  0.26325936     1.59900
O196        O  0.31265176  0.21829065  0.30807612    -0.80300
O197        O  0.09730528  0.25323820  0.20788840    -0.79000
C198        C  0.28401582  0.32242364  0.18981992     0.83500
C199        C  0.28641426  0.16076120  0.15127806     0.83200
O200        O  0.14909397  0.25287790  0.14848421    -0.77900
C201        C  0.14376946  0.13148670  0.29899677     0.84000
O202        O  0.25051487  0.30378110  0.16620712    -0.78000
C203        C  0.31629726  0.17688444  0.31958143     0.84100
C204        C  0.18196329  0.29911645  0.33147692     0.84500
O205        O  0.22506076  0.29392852  0.31433405    -0.80500
C206        C  0.53008854  0.84093837  0.57815070     0.03700
C207        C  0.56647987  0.82232330  0.60755883    -0.12500
C208        C  0.56421769  0.77583695  0.62021204     0.01200
C209        C  0.52557536  0.74920218  0.60197792    -0.11000
C210        C  0.49020035  0.76820157  0.57231741     0.03700
C211        C  0.49262376  0.81336048  0.56193905    -0.10400
H212        H  0.59639445  0.84327323  0.61977886     0.09200
H213        H  0.52324554  0.71386811  0.61048556     0.06800
H214        H  0.46523002  0.82720212  0.53894007     0.06600
C215        C  0.37829490  0.68538645  0.64694846     0.03700
C216        C  0.34643489  0.67805899  0.61000030    -0.12500
C217        C  0.36438749  0.65711580  0.57117293     0.01200
C218        C  0.39824525  0.62274941  0.57909815    -0.11000
C219        C  0.43272383  0.62735726  0.61432167     0.03700
C220        C  0.42330725  0.65991157  0.64883880    -0.10400
H221        H  0.31269652  0.69728056  0.60703880     0.09200
H222        H  0.40694931  0.60053419  0.55125348     0.06800
H223        H  0.45040306  0.66612431  0.67500652     0.06600
O224        O  0.52391174  0.88764121  0.51460575    -0.78000
C225        C  0.39904083  0.91675093  0.43429019     0.83100
O226        O  0.58459296  0.99791443  0.41005343    -0.79100
O227        O  0.41176162  0.04615325  0.42670965    -0.80600
O228        O  0.45201384  0.02445666  0.58966570    -0.80400
O229        O  0.52462832  0.92222355  0.58139527    -0.79000
Zn230      Zn  0.50605754  0.92934918  0.46358635     1.55700
O231        O  0.39864019  0.04837590  0.53750477    -0.80400
Cd232      Cd  0.51056856  0.98883443  0.55753332     1.59700
Cd233      Cd  0.53740517  0.03255503  0.45690956     1.59600
O234        O  0.57162439  0.03008352  0.57478247    -0.80400
O235        O  0.49545253  0.98848728  0.48987295    -1.90900
Cd236      Cd  0.42324363  0.00553610  0.48244906     1.59900
O237        O  0.57852816  0.06649058  0.50882371    -0.80300
O238        O  0.38503347  0.94821841  0.46105779    -0.79000
C239        C  0.58799164  0.95635950  0.39880734     0.83500
C240        C  0.52915768  0.88665915  0.55755245     0.83200
O241        O  0.44469533  0.90690964  0.42984609    -0.77900
C242        C  0.41745973  0.05164798  0.57717874     0.84000
O243        O  0.56047394  0.92685655  0.41726485    -0.78000
C244        C  0.58902826  0.06253476  0.55131870     0.84100
C245        C  0.44023280  0.07714353  0.41274205     0.84500
O246        O  0.48696753  0.07715914  0.42244421    -0.80500
C247        C  0.41705764  0.39139266  0.59256149     0.03700
C248        C  0.42285780  0.35847543  0.55928724    -0.12500
C249        C  0.38467024  0.32935670  0.54920797     0.01200
C250        C  0.34621442  0.32370258  0.58037645    -0.11000
C251        C  0.34215325  0.34883570  0.62004543     0.03700
C252        C  0.37735768  0.38539459  0.62535799    -0.10400
H253        H  0.45382058  0.36021502  0.53591489     0.09200
H254        H  0.31705328  0.30030753  0.57204875     0.06800
H255        H  0.37313910  0.40888259  0.65282905     0.06600
C256        C  0.18191318  0.32045974  0.37689884     0.03700
C257        C  0.14864296  0.35287449  0.39477557    -0.12500
C258        C  0.16064891  0.37508855  0.43631143     0.01200
C259        C  0.20558121  0.36483426  0.45771924    -0.11000
C260        C  0.23580614  0.33085063  0.44103455     0.03700
C261        C  0.22285257  0.30806204  0.40265577    -0.10400
H262        H  0.11547792  0.36178917  0.37630586     0.09200
H263        H  0.21664395  0.38242868  0.48806333     0.06800
H264        H  0.24794272  0.28217402  0.39084173     0.06600
C265        C  0.63086292  0.32496453  0.38002342     0.03700
C266        C  0.59546411  0.29485498  0.39729599    -0.12500
C267        C  0.56468500  0.30696608  0.43313876     0.01200
C268        C  0.57152281  0.34683516  0.45527813    -0.11000
C269        C  0.60187531  0.38008969  0.43695771     0.03700
C270        C  0.63323110  0.36910922  0.39954446    -0.10400
H271        H  0.58854588  0.26324838  0.38047449     0.09200
H272        H  0.54673188  0.35452288  0.48319067     0.06800
H273        H  0.65735737  0.39450270  0.38508706     0.06600
C274        C  0.41641135  0.11909856  0.39545120     0.03700
C275        C  0.43081996  0.15705512  0.41892856    -0.12500
C276        C  0.40476518  0.19706923  0.41607424     0.01200
C277        C  0.36453987  0.20030530  0.38654784    -0.11000
C278        C  0.35212001  0.16513590  0.35717426     0.03700
C279        C  0.37637814  0.12280903  0.36377215    -0.10400
H280        H  0.46336783  0.15521341  0.44015582     0.09200
H281        H  0.34514801  0.23200273  0.38412219     0.06800
H282        H  0.36571046  0.09411214  0.34382101     0.06600
C283        C  0.58773279  0.58430416  0.80655544     0.03700
C284        C  0.57649792  0.54484270  0.78247880    -0.12500
C285        C  0.54685468  0.51113760  0.80209419     0.01200
C286        C  0.52931587  0.51540252  0.84561901    -0.11000
C287        C  0.54156802  0.55172290  0.87238083     0.03700
C288        C  0.56967798  0.58773512  0.85233863    -0.10400
H289        H  0.59100117  0.54015906  0.74865359     0.09200
H290        H  0.50670626  0.48833492  0.85946607     0.06800
H291        H  0.57928621  0.61673642  0.87218486     0.06600
C292        C  0.61837858  0.41860018  0.65086447     0.03700
C293        C  0.65759853  0.38732277  0.65876484    -0.12500
C294        C  0.64866718  0.34820622  0.68630966     0.01200
C295        C  0.60106488  0.34159631  0.70460224    -0.11000
C296        C  0.56558911  0.37524609  0.70271191     0.03700
C297        C  0.57296099  0.41054386  0.67213874    -0.10400
H298        H  0.69390736  0.39328165  0.64425155     0.09200
H299        H  0.59346297  0.31263244  0.72566187     0.06800
H300        H  0.54378022  0.43477086  0.66758683     0.06600
O301        O  0.58995415  0.49242281  0.63246730    -0.78000
C302        C  0.47995222  0.60308966  0.60468350     0.83100
O303        O  0.45535346  0.44198165  0.54074364    -0.79100
O304        O  0.48166962  0.58886588  0.46143436    -0.80600
O305        O  0.65885070  0.55435347  0.49786051    -0.80400
O306        O  0.63944297  0.45983015  0.58225756    -0.79000
Zn307      Zn  0.52454433  0.50747916  0.60002955     1.55700
O308        O  0.60090575  0.60644051  0.48396672    -0.80400
Cd309      Cd  0.61798339  0.49844850  0.52425775     1.59700
Cd310      Cd  0.50227420  0.47970406  0.49847453     1.59600
O311        O  0.62580870  0.44846370  0.47450773    -0.80400
O312        O  0.54553779  0.51739927  0.53536111    -1.90900
Cd313      Cd  0.53500561  0.58158517  0.51408714     1.59900
O314        O  0.54575998  0.43475339  0.46250539    -0.80300
O315        O  0.50447476  0.61666720  0.56987922    -0.79000
C316        C  0.44912195  0.43242638  0.58264310     0.83500
C317        C  0.61893875  0.46011195  0.62132239     0.83200
O318        O  0.48584930  0.56369777  0.62121557    -0.77900
C319        C  0.64533782  0.59189322  0.48003686     0.84000
O320        O  0.47396979  0.45365804  0.61239343    -0.78000
C321        C  0.59155805  0.42509236  0.45663115     0.84100
C322        C  0.45488344  0.55879575  0.44301072     0.84500
O323        O  0.46004386  0.51754758  0.45402773    -0.80500
C324        C  0.32745010  0.15176671  0.11759607     0.03700
C325        C  0.34085056  0.18888646  0.09036223    -0.12500
C326        C  0.37605964  0.18617161  0.05565429     0.01200
C327        C  0.40612948  0.14866568  0.05537235    -0.11000
C328        C  0.39227256  0.10908235  0.07776842     0.03700
C329        C  0.35326780  0.11055750  0.11061271    -0.10400
H330        H  0.32135836  0.22013264  0.09444435     0.09200
H331        H  0.43825923  0.14867604  0.03367097     0.06800
H332        H  0.34278670  0.08065355  0.12924534     0.06600
C333        C  0.16957590  0.12490880  0.94584574     0.03700
C334        C  0.16234596  0.13514509  0.89882926    -0.12500
C335        C  0.19426066  0.16647928  0.87657002     0.01200
C336        C  0.22980718  0.18883846  0.90201998    -0.11000
C337        C  0.23727922  0.17905814  0.94716760     0.03700
C338        C  0.20772630  0.14695383  0.96924713    -0.10400
H339        H  0.13331942  0.11846922  0.88002091     0.09200
H340        H  0.25417931  0.21328483  0.88589218     0.06800
H341        H  0.21482292  0.13880988  0.00438476     0.06600
C342        C  0.11857416  0.42715989  0.88324702     0.03700
C343        C  0.16318685  0.45136387  0.88307557    -0.12500
C344        C  0.19750259  0.44726840  0.84787300     0.01200
C345        C  0.19132405  0.41160380  0.81770453    -0.11000
C346        C  0.14933604  0.38390203  0.81759259     0.03700
C347        C  0.11150954  0.39252184  0.85031591    -0.10400
H348        H  0.16891706  0.47630492  0.90871886     0.09200
H349        H  0.21897189  0.40627783  0.79193446     0.06800
H350        H  0.07762955  0.37295981  0.85024417     0.06600
C351        C  0.15358022  0.56044596  0.64277126     0.03700
C352        C  0.16060632  0.60846360  0.64402706    -0.12500
C353        C  0.18960481  0.62850141  0.67927647     0.01200
C354        C  0.21310291  0.60063351  0.70994923    -0.11000
C355        C  0.20428771  0.55489133  0.71119351     0.03700
C356        C  0.17490318  0.53458219  0.67773913    -0.10400
H357        H  0.14277855  0.62959998  0.61909972     0.09200
H358        H  0.23596220  0.61534531  0.73628018     0.06800
H359        H  0.16739602  0.49889508  0.67975144     0.06600
O360        O  0.29411289  0.34789333  0.69168536    -0.78000
C361        C  0.15051361  0.34726419  0.78237656     0.83100
O362        O  0.31291154  0.26785622  0.80998104    -0.79100
O363        O  0.15904321  0.20206807  0.81126919    -0.80600
O364        O  0.16084337  0.22502893  0.64084222    -0.80400
O365        O  0.27445695  0.29851060  0.63845792    -0.79000
Zn366      Zn  0.24450876  0.32359887  0.74182290     1.55700
O367        O  0.11112469  0.22080211  0.70193938    -0.80400
Cd368      Cd  0.23310563  0.24367414  0.66587804     1.59700
Cd369      Cd  0.27566789  0.22296434  0.76461177     1.59600
O370        O  0.28311642  0.18984124  0.65004804    -0.80400
O371        O  0.22644868  0.25910930  0.73193484    -1.90900
Cd372      Cd  0.15604923  0.24739344  0.75606961     1.59900
O373        O  0.32155880  0.18765618  0.71643416    -0.80300
O374        O  0.13360789  0.30780217  0.79039691    -0.79000
C375        C  0.30833414  0.30879351  0.82351757     0.83500
C376        C  0.30068826  0.33228015  0.65192001     0.83200
O377        O  0.17730258  0.35407669  0.74711858    -0.77900
C378        C  0.11888989  0.21469465  0.65937038     0.84000
O379        O  0.27951337  0.33540977  0.80261354    -0.78000
C380        C  0.31931863  0.17629534  0.67431516     0.84100
C381        C  0.19526743  0.17999627  0.82793085     0.84500
O382        O  0.23796808  0.17913677  0.80870001    -0.80500
O383        O  0.54407689  0.90278150  0.94378896    -0.78000
C384        C  0.47056108  0.89611513  0.08117558     0.83100
O385        O  0.44692663  0.00180348  0.91974623    -0.79100
O386        O  0.43775907  0.04058990  0.08973172    -0.80600
O387        O  0.62171758  0.02075504  0.06503566    -0.80400
O388        O  0.61099953  0.94140995  0.96488403    -0.79000
Zn389      Zn  0.49084739  0.93181859  0.98527979     1.55700
O390        O  0.55771557  0.03050676  0.11201942    -0.80400
Cd391      Cd  0.58764124  0.99767869  0.00292394     1.59700
Cd392      Cd  0.47901414  0.03416343  0.97532149     1.59600
O393        O  0.60650370  0.05104246  0.95935425    -0.80400
O394        O  0.51387667  0.98961366  0.01132325    -1.90900
Cd395      Cd  0.49742911  0.99694296  0.07854291     1.59900
O396        O  0.53128350  0.07943668  0.94879633    -0.80300
O397        O  0.48067216  0.93169633  0.10365687    -0.79000
C398        C  0.43250366  0.96179935  0.91077537     0.83500
C399        C  0.58984621  0.91234333  0.93888988     0.83200
O400        O  0.47052568  0.89521869  0.03800612    -0.77900
C401        C  0.60364475  0.03650435  0.10213304     0.84000
O402        O  0.43455418  0.93143300  0.94071370    -0.78000
C403        C  0.57850044  0.08165998  0.94384886     0.84100
C404        C  0.41992619  0.06885239  0.06174453     0.84500
O405        O  0.43118999  0.06795892  0.01947553    -0.80500
C406        C  0.84301297  0.38453759  0.35022189     0.03700
C407        C  0.88869598  0.39202712  0.37478068    -0.12500
C408        C  0.89194142  0.42899481  0.40666744     0.01200
C409        C  0.85082579  0.45763510  0.41028192    -0.11000
C410        C  0.81366986  0.45510613  0.37798447     0.03700
C411        C  0.80323981  0.41266558  0.36148112    -0.10400
H412        H  0.92079781  0.37156222  0.36789446     0.09200
H413        H  0.85389708  0.48847279  0.42933461     0.06800
H414        H  0.76770894  0.40793857  0.34519148     0.06600
C415        C  0.83527141  0.61740324  0.17987738     0.03700
C416        C  0.82801713  0.58685592  0.21456730    -0.12500
C417        C  0.83964089  0.54226691  0.21009378     0.01200
C418        C  0.86195488  0.52642617  0.17080823    -0.11000
C419        C  0.87309226  0.55602970  0.13492614     0.03700
C420        C  0.85912558  0.60250812  0.13938307    -0.10400
H421        H  0.81208688  0.59797927  0.24642226     0.09200
H422        H  0.87259512  0.49145144  0.16928938     0.06800
H423        H  0.86566994  0.62591213  0.11191789     0.06600
C424        C  0.63769899  0.06082619  0.13514617     0.03700
C425        C  0.67380226  0.03538473  0.15838792    -0.12500
C426        C  0.70938930  0.05678489  0.18576876     0.01200
C427        C  0.71279719  0.10296765  0.18523417    -0.11000
C428        C  0.67195533  0.12849186  0.17383311     0.03700
C429        C  0.63439193  0.10804547  0.14612419    -0.10400
H430        H  0.67221976  0.99909246  0.15736781     0.09200
H431        H  0.74303600  0.11848722  0.20387245     0.06800
H432        H  0.60419819  0.12806986  0.13308292     0.06600
C433        C  0.62459751  0.94155901  0.36366066     0.03700
C434        C  0.66675081  0.96809050  0.35510976    -0.12500
C435        C  0.70177201  0.95660622  0.32155225     0.01200
C436        C  0.69309816  0.91741745  0.29664068    -0.11000
C437        C  0.65223849  0.88984095  0.30422394     0.03700
C438        C  0.61842426  0.90107427  0.33893840    -0.10400
H439        H  0.67148468  0.99775511  0.37500279     0.09200
H440        H  0.71890653  0.90692403  0.27081460     0.06800
H441        H  0.58765149  0.87878279  0.34634331     0.06600
C442        C  0.11151790  0.61279154  0.41024286     0.03700
C443        C  0.08644583  0.65150996  0.42235374    -0.12500
C444        C  0.09374875  0.69093867  0.39891820     0.01200
C445        C  0.13149981  0.69514574  0.36749009    -0.11000
C446        C  0.16166393  0.65912580  0.35578549     0.03700
C447        C  0.15098046  0.61647871  0.37715285    -0.10400
H448        H  0.05735235  0.65034679  0.44777423     0.09200
H449        H  0.13483710  0.72694406  0.34984837     0.06800
H450        H  0.17158377  0.58722516  0.36739131     0.06600
C451        C  0.87156616  0.83726758  0.33369197     0.03700
C452        C  0.91847076  0.81745376  0.33084228    -0.12500
C453        C  0.95510631  0.82739624  0.36221034     0.01200
C454        C  0.94916114  0.86335185  0.39039594    -0.11000
C455        C  0.90634148  0.88885533  0.38984657     0.03700
C456        C  0.86533182  0.87471392  0.36311796    -0.10400
H457        H  0.92472281  0.78940489  0.30841924     0.09200
H458        H  0.97650774  0.86933145  0.41645521     0.06800
H459        H  0.82983236  0.89130081  0.36597940     0.06600
C460        C  0.88568422  0.91381196  0.07745410     0.03700
C461        C  0.87004883  0.88543252  0.11456092    -0.12500
C462        C  0.81962480  0.86821632  0.11631655     0.01200
C463        C  0.78712760  0.88072078  0.08170118    -0.11000
C464        C  0.80318996  0.90665519  0.04529609     0.03700
C465        C  0.85089917  0.92321358  0.04405025    -0.10400
H466        H  0.89623929  0.87644882  0.14070541     0.09200
H467        H  0.74974286  0.86726949  0.08081518     0.06800
H468        H  0.86159619  0.94230888  0.01434390     0.06600
C469        C  0.65673976  0.83963425  0.84527366     0.03700
C470        C  0.61613070  0.85297057  0.87458518    -0.12500
C471        C  0.62039735  0.89445406  0.89969623     0.01200
C472        C  0.66071817  0.92191545  0.88902293    -0.11000
C473        C  0.70419924  0.90131403  0.87680400     0.03700
C474        C  0.70088044  0.86544988  0.84773999    -0.10400
H475        H  0.58429117  0.83125267  0.87922420     0.09200
H476        H  0.66367748  0.95500500  0.90379793     0.06800
H477        H  0.73550038  0.85386831  0.83340797     0.06600
O478        O  0.71760086  0.72565820  0.34280496    -0.78000
C479        C  0.83142741  0.81386012  0.30818211     0.83100
O480        O  0.66416527  0.84395223  0.23897684    -0.79100
O481        O  0.82738495  0.80963452  0.17265447    -0.80600
O482        O  0.76570262  0.65738170  0.20360253    -0.80400
O483        O  0.70042078  0.66415569  0.30376650    -0.79000
Zn484      Zn  0.72679466  0.77754537  0.30037037     1.55700
O485        O  0.83543034  0.69747656  0.19536804    -0.80400
Cd486      Cd  0.71187963  0.69269185  0.23861514     1.59700
Cd487      Cd  0.69863923  0.79455002  0.19725658     1.59600
O488        O  0.64855867  0.68351179  0.20102397    -0.80400
O489        O  0.73691508  0.75644089  0.23905871    -1.90900
Cd490      Cd  0.80935453  0.76036750  0.22051976     1.59900
O491        O  0.65370049  0.74688475  0.16043034    -0.80300
O492        O  0.84478829  0.78821569  0.27567398    -0.79000
C493        C  0.65557598  0.84565635  0.28174549     0.83500
C494        C  0.70648632  0.68406961  0.34143104     0.83200
O495        O  0.78600337  0.81700042  0.32009977    -0.77900
C496        C  0.81076813  0.66099802  0.19022876     0.84000
O497        O  0.66452439  0.81250918  0.30716477    -0.78000
C498        C  0.63786128  0.70617698  0.16600605     0.84100
C499        C  0.79855107  0.83516846  0.15058187     0.84500
O500        O  0.75104032  0.83161473  0.15558611    -0.80500
C501        C  0.41356657  0.56991985  0.41067887     0.03700
C502        C  0.41345695  0.60501912  0.37701701    -0.12500
C503        C  0.37341194  0.60764073  0.34510209     0.01200
C504        C  0.33411599  0.57717464  0.35001342    -0.11000
C505        C  0.33831442  0.53958701  0.37754763     0.03700
C506        C  0.37434524  0.53873308  0.41075876    -0.10400
H507        H  0.44459077  0.62787435  0.37429985     0.09200
H508        H  0.30382062  0.57768721  0.32597117     0.06800
H509        H  0.37541875  0.50931567  0.43243938     0.06600
C510        C  0.29722609  0.37086514  0.18330329     0.03700
C511        C  0.31400209  0.39354317  0.14313401    -0.12500
C512        C  0.32869266  0.44000289  0.14529290     0.01200
C513        C  0.32535715  0.46188064  0.18700073    -0.11000
C514        C  0.30851788  0.43929654  0.22539268     0.03700
C515        C  0.29342406  0.39524128  0.22311983    -0.10400
H516        H  0.31838245  0.37505390  0.11201034     0.09200
H517        H  0.33852712  0.49612220  0.19034522     0.06800
H518        H  0.28090508  0.37900860  0.25409964     0.06600
O519        O  0.38933653  0.60918616  0.97582493    -0.78000
C520        C  0.51326260  0.60238123  0.07968380     0.83100
O521        O  0.52532384  0.50843248  0.93881476    -0.79100
O522        O  0.51235685  0.46085891  0.10551015    -0.80600
O523        O  0.33910696  0.46750601  0.06822124    -0.80400
O524        O  0.32715106  0.56003366  0.98438550    -0.79000
Zn525      Zn  0.45182017  0.57613817  0.99449770     1.55700
O526        O  0.39653934  0.48518826  0.12045229    -0.80400
Cd527      Cd  0.36477138  0.49986696  0.00735269     1.59700
Cd528      Cd  0.48096765  0.47421243  0.98708061     1.59600
O529        O  0.35427277  0.44946159  0.95662377    -0.80400
O530        O  0.43797514  0.51613361  0.01952135    -1.90900
Cd531      Cd  0.45954816  0.51112308  0.08695099     1.59900
O532        O  0.43380687  0.43108399  0.95046530    -0.80300
O533        O  0.49934967  0.57069639  0.10644769    -0.79000
C534        C  0.52153053  0.54701600  0.91959417     0.83500
C535        C  0.34361305  0.59890519  0.97192035     0.83200
O536        O  0.49412568  0.60699986  0.04042941    -0.77900
C537        C  0.35612636  0.46521737  0.10877028     0.84000
O538        O  0.49336491  0.57681851  0.93613847    -0.78000
C539        C  0.38794280  0.42385764  0.94086321     0.84100
C540        C  0.53254690  0.43362638  0.07827355     0.84500
O541        O  0.52284699  0.43699930  0.03564137    -0.80500
O542        O  0.00954813  0.04300127  0.41945507    -0.78000
C543        C  0.90827971  0.92370098  0.42464934     0.83100
O544        O  0.86518197  0.07689118  0.51370458    -0.79100
O545        O  0.88005180  0.91937709  0.56521423    -0.80600
O546        O  0.05740755  0.95285246  0.56473770    -0.80400
O547        O  0.06664780  0.02864163  0.47194782    -0.79000
Zn548      Zn  0.94484678  0.01805936  0.44967107     1.55700
O549        O  0.00043020  0.89997359  0.55370704    -0.80400
Cd550      Cd  0.02755445  0.00761394  0.53066943     1.59700
Cd551      Cd  0.91210042  0.03466963  0.55638002     1.59600
O552        O  0.04099069  0.05712975  0.57580977    -0.80400
O553        O  0.95510994  0.99989271  0.51441596    -1.90900
Cd554      Cd  0.93907675  0.93460835  0.52458841     1.59900
O555        O  0.96366084  0.07807841  0.59251157    -0.80300
O556        O  0.91489731  0.90913380  0.46475161    -0.79000
C557        C  0.86518275  0.08689338  0.47107174     0.83500
C558        C  0.05473419  0.04338913  0.43251579     0.83200
O559        O  0.91753078  0.96436204  0.41348317    -0.77900
C560        C  0.04280398  0.91248353  0.56902538     0.84000
O561        O  0.89441716  0.06725749  0.44388169    -0.78000
C562        C  0.01123304  0.08389356  0.59451832     0.84100
C563        C  0.86295925  0.94278656  0.59698905     0.84500
O564        O  0.87221608  0.98554566  0.59892984    -0.80500
C565        C  0.32786059  0.85032909  0.34185126     0.03700
C566        C  0.36906235  0.86498100  0.36857380    -0.12500
C567        C  0.36033588  0.89321298  0.40692168     0.01200
C568        C  0.31134851  0.89994624  0.42036514    -0.11000
C569        C  0.27229918  0.88453004  0.39423004     0.03700
C570        C  0.28093934  0.86759304  0.35200140    -0.10400
H571        H  0.40627119  0.85422152  0.36036003     0.09200
H572        H  0.30325882  0.91482800  0.45291116     0.06800
H573        H  0.24848904  0.85884022  0.33229464     0.06600
C574        C  0.08131572  0.87814100  0.57915281     0.03700
C575        C  0.11490914  0.87722836  0.61708393    -0.12500
C576        C  0.16136685  0.85395096  0.61323445     0.01200
C577        C  0.17549787  0.84000048  0.57000344    -0.11000
C578        C  0.14347704  0.84412192  0.53351460     0.03700
C579        C  0.09464955  0.85581844  0.53989754    -0.10400
H580        H  0.10515005  0.89381254  0.64826670     0.09200
H581        H  0.21315080  0.82884832  0.56386029     0.06800
H582        H  0.07138514  0.85848399  0.51001804     0.06600
C583        C  0.33885792  0.32450416  0.86369734     0.03700
C584        C  0.34054151  0.36926024  0.88286629    -0.12500
C585        C  0.37622112  0.37975581  0.91774995     0.01200
C586        C  0.40829380  0.34585486  0.93144181    -0.11000
C587        C  0.40893675  0.30464249  0.91082938     0.03700
C588        C  0.37202886  0.29260528  0.88078418    -0.10400
H589        H  0.31627244  0.39518414  0.87005640     0.09200
H590        H  0.43677412  0.35261327  0.95636125     0.06800
H591        H  0.37342989  0.25901728  0.86703046     0.06600
C592        C  0.59986909  0.12413151  0.92484159     0.03700
C593        C  0.63978320  0.12829691  0.89315626    -0.12500
C594        C  0.65240055  0.17158305  0.87527058     0.01200
C595        C  0.62625703  0.20901019  0.89016731    -0.11000
C596        C  0.58659015  0.20449369  0.91998531     0.03700
C597        C  0.57508036  0.16278440  0.93816607    -0.10400
H598        H  0.65862430  0.09868720  0.88106982     0.09200
H599        H  0.63386916  0.24168322  0.87526161     0.06800
H600        H  0.54315546  0.15982019  0.96027035     0.06600
C601        C  0.07845352  0.19469644  0.62998914     0.03700
C602        C  0.05542492  0.22153794  0.59615139    -0.12500
C603        C  0.02364919  0.20141112  0.56397543     0.01200
C604        C  0.01982132  0.15562948  0.56292574    -0.11000
C605        C  0.03074102  0.13004978  0.60040459     0.03700
C606        C  0.06337835  0.14843428  0.63350254    -0.10400
H607        H  0.06170161  0.25743169  0.59526547     0.09200
H608        H  0.00157228  0.14016551  0.53412075     0.06800
H609        H  0.07783512  0.12725882  0.66017106     0.06600
C610        C  0.94197220  0.36079521  0.58569157     0.03700
C611        C  0.92613327  0.34665769  0.54316386    -0.12500
C612        C  0.90474404  0.30483610  0.53727583     0.01200
C613        C  0.88412129  0.28340335  0.57599724    -0.11000
C614        C  0.89297641  0.29926409  0.61979134     0.03700
C615        C  0.92363589  0.33819358  0.62475293    -0.10400
H616        H  0.93901467  0.36420444  0.51347257     0.09200
H617        H  0.86280775  0.25288594  0.57257045     0.06800
H618        H  0.93386932  0.34980830  0.65806085     0.06600
C619        C  0.56741191  0.39581474  0.09333455     0.03700
C620        C  0.60075088  0.39252223  0.13236248    -0.12500
C621        C  0.64116932  0.35990867  0.13211962     0.01200
C622        C  0.64912636  0.33809710  0.09096998    -0.11000
C623        C  0.61684938  0.34180110  0.05492627     0.03700
C624        C  0.57246818  0.36334791  0.05975660    -0.10400
H625        H  0.59619003  0.41481822  0.16077064     0.09200
H626        H  0.68345394  0.32021582  0.08492523     0.06800
H627        H  0.54794142  0.36266182  0.03075315     0.06600
C628        C  0.85685100  0.37645682  0.93574769     0.03700
C629        C  0.81270377  0.36877387  0.95962480    -0.12500
C630        C  0.77405255  0.34479490  0.93963056     0.01200
C631        C  0.77846908  0.32865038  0.89663789    -0.11000
C632        C  0.82259697  0.33260839  0.87325117     0.03700
C633        C  0.86241236  0.35715704  0.89199685    -0.10400
H634        H  0.80716924  0.38319061  0.99280420     0.09200
H635        H  0.74693990  0.31162913  0.88141005     0.06800
H636        H  0.89672807  0.36088561  0.87327968     0.06600
O637        O  0.81526317  0.26355910  0.83979196    -0.78000
C638        C  0.68764230  0.18104201  0.83755808     0.83100
O639        O  0.86239533  0.14321723  0.74659123    -0.79100
O640        O  0.68671950  0.16755339  0.69276441    -0.80600
O641        O  0.73233218  0.32768444  0.70730435    -0.80400
O642        O  0.81689951  0.32315090  0.79400521    -0.79000
Zn643      Zn  0.79246009  0.20892142  0.80882378     1.55700
O644        O  0.67295560  0.27591550  0.71382751    -0.80400
Cd645      Cd  0.79314042  0.29226503  0.73486980     1.59700
Cd646      Cd  0.81541494  0.18670616  0.70231013     1.59600
O647        O  0.84822848  0.30257813  0.68832630    -0.80400
O648        O  0.77746225  0.22540494  0.74591342    -1.90900
Cd649      Cd  0.70406463  0.21620365  0.73951209     1.59900
O650        O  0.85722680  0.23406062  0.65908335    -0.80300
O651        O  0.67010798  0.19513395  0.79997840    -0.79000
C652        C  0.87036532  0.14113519  0.79002996     0.83500
C653        C  0.82275600  0.30514043  0.83272022     0.83200
O654        O  0.73407280  0.18213426  0.84519229    -0.77900
C655        C  0.68731144  0.31543027  0.70212105     0.84000
O656        O  0.84702311  0.16632825  0.81675574    -0.78000
C657        C  0.86613838  0.27687113  0.65851603     0.84100
C658        C  0.71110262  0.15037994  0.66040604     0.84500
O659        O  0.75907789  0.15377583  0.65864197    -0.80500
C660        C  0.12402387  0.84915466  0.84123501     0.03700
C661        C  0.12804308  0.88470075  0.87356988    -0.12500
C662        C  0.08860851  0.89125639  0.90528561     0.01200
C663        C  0.05052902  0.85953826  0.90683582    -0.11000
C664        C  0.04602330  0.82696762  0.87412583     0.03700
C665        C  0.07972844  0.82514049  0.83900860    -0.10400
H666        H  0.16057029  0.90604220  0.87423229     0.09200
H667        H  0.02372824  0.86000104  0.93423019     0.06800
H668        H  0.07372675  0.80091433  0.81235002     0.06600
C669        C  0.89691415  0.60939693  0.90294130     0.03700
C670        C  0.91380485  0.65069451  0.91890658    -0.12500
C671        C  0.90156928  0.69033092  0.89782232     0.01200
C672        C  0.86510095  0.69130068  0.86543515    -0.11000
C673        C  0.84123795  0.65229812  0.85049563     0.03700
C674        C  0.85906538  0.60981642  0.86817363    -0.10400
H675        H  0.94299267  0.65244971  0.94404401     0.09200
H676        H  0.85853588  0.72334167  0.84917093     0.06800
H677        H  0.84399309  0.57859025  0.85568597     0.06600
C678        C  0.90504343  0.10733662  0.81163199     0.03700
C679        C  0.91953561  0.10820291  0.85892607    -0.12500
C680        C  0.94809667  0.07219844  0.87806113     0.01200
C681        C  0.96324324  0.03818109  0.84928947    -0.11000
C682        C  0.94422754  0.03448463  0.80637046     0.03700
C683        C  0.91742600  0.06935988  0.78654909    -0.10400
H684        H  0.90729299  0.13518870  0.88052070     0.09200
H685        H  0.98469051  0.01016464  0.86229460     0.06800
H686        H  0.90207327  0.06470679  0.75305955     0.06600
C687        C  0.81966234  0.84642551  0.67782964     0.03700
C688        C  0.85409542  0.85741967  0.71156056    -0.12500
C689        C  0.88007093  0.89748063  0.70998564     0.01200
C690        C  0.87084093  0.92879435  0.67615782    -0.11000
C691        C  0.84484389  0.91717475  0.63775259     0.03700
C692        C  0.81797632  0.87512393  0.63837266    -0.10400
H693        H  0.85993687  0.83567829  0.74051636     0.09200
H694        H  0.88982932  0.96093475  0.67743850     0.06800
H695        H  0.79652270  0.86519861  0.60921460     0.06600
O696        O  0.76025431  0.68422948  0.63828968    -0.78000
C697        C  0.60231868  0.75492852  0.65132286     0.83100
O698        O  0.79012231  0.78881726  0.72794457    -0.79100
O699        O  0.62560434  0.77641015  0.79891103    -0.80600
O700        O  0.66090181  0.60730913  0.76419130    -0.80400
O701        O  0.77415962  0.62431293  0.68201642    -0.79000
Zn702      Zn  0.71376933  0.73109961  0.66692733     1.55700
O703        O  0.60512016  0.66068763  0.78233504    -0.80400
Cd704      Cd  0.72641405  0.64240618  0.73966820     1.59700
Cd705      Cd  0.74759776  0.74427754  0.76700645     1.59600
O706        O  0.77803622  0.63106005  0.79394714    -0.80400
O707        O  0.70280002  0.70858729  0.72980975    -1.90900
Cd708      Cd  0.63128543  0.72173191  0.75084535     1.59900
O709        O  0.79209218  0.70282966  0.80644984    -0.80300
O710        O  0.59026936  0.74456972  0.69229597    -0.79000
C711        C  0.78696651  0.80612107  0.68833323     0.83500
C712        C  0.78502497  0.64833360  0.64689995     0.83200
O713        O  0.64660523  0.74871202  0.63659002    -0.77900
C714        C  0.61991753  0.61959715  0.78346436     0.84000
O715        O  0.75590527  0.79014495  0.66024510    -0.78000
C716        C  0.80146876  0.66156070  0.81514166     0.84100
C717        C  0.66195140  0.79745578  0.81691008     0.84500
O718        O  0.70637904  0.78555563  0.80809234    -0.80500
O719        O  0.04084915  0.57770635  0.04116502    -0.78000
C720        C  0.92327290  0.57026577  0.92540270     0.83100
O721        O  0.90121095  0.49460324  0.08825834    -0.79100
O722        O  0.92518506  0.42562128  0.92873400    -0.80600
O723        O  0.09355989  0.44977638  0.95754588    -0.80400
O724        O  0.09940274  0.52629058  0.05168827    -0.79000
Zn725      Zn  0.97574574  0.55021470  0.01896486     1.55700
O726        O  0.03677982  0.45344861  0.90237307    -0.80400
Cd727      Cd  0.06041328  0.47177363  0.01901900     1.59700
Cd728      Cd  0.94041703  0.45357145  0.04139651     1.59600
O729        O  0.06236814  0.41450914  0.06110724    -0.80400
O730        O  0.98839760  0.48844429  0.00380636    -1.90900
Cd731      Cd  0.97320059  0.47811280  0.93624121     1.59900
O732        O  0.98152932  0.40564826  0.07599641    -0.80300
O733        O  0.93314402  0.53323744  0.90561212    -0.79000
C734        C  0.90161519  0.53704386  0.09556434     0.83500
C735        C  0.08406611  0.56678115  0.05567428     0.83200
O736        O  0.93975244  0.57731985  0.96536641    -0.77900
C737        C  0.08020496  0.44299371  0.91636501     0.84000
O738        O  0.92834714  0.56272296  0.07127928    -0.78000
C739        C  0.02656593  0.39236694  0.07873433     0.84100
C740        C  0.89416703  0.40743868  0.95541626     0.84500
O741        O  0.89301631  0.41693056  0.99774354    -0.80500
C742        C  0.40788840  0.09163316  0.60869584     0.03700
C743        C  0.36249299  0.11561910  0.61949273    -0.12500
C744        C  0.36310605  0.15052661  0.65395683     0.01200
C745        C  0.40879961  0.15921585  0.67524212    -0.11000
C746        C  0.44635818  0.12739977  0.67308116     0.03700
C747        C  0.45055649  0.10448410  0.63259047    -0.10400
H748        H  0.32806347  0.10647445  0.60321698     0.09200
H749        H  0.41040689  0.18272578  0.70302282     0.06800
H750        H  0.48532524  0.08799273  0.62568411     0.06600
C751        C  0.42048058  0.95038660  0.86282995     0.03700
C752        C  0.39437697  0.91155994  0.84761944    -0.12500
C753        C  0.38496335  0.90525687  0.80046232     0.01200
C754        C  0.40185727  0.93826275  0.76983007    -0.11000
C755        C  0.42970606  0.97495547  0.78510794     0.03700
C756        C  0.43994309  0.97972259  0.83056732    -0.10400
H757        H  0.37995573  0.88765259  0.87201519     0.09200
H758        H  0.39183667  0.93632427  0.73443993     0.06800
H759        H  0.46096846  0.00904397  0.84085396     0.06600
C760        C  0.11425916  0.60394198  0.07758750     0.03700
C761        C  0.09860856  0.64767023  0.06657491    -0.12500
C762        C  0.12050217  0.68584733  0.08547160     0.01200
C763        C  0.14879519  0.67911356  0.12410161    -0.11000
C764        C  0.17539199  0.63911125  0.12929165     0.03700
C765        C  0.15654152  0.59970729  0.10713956    -0.10400
H766        H  0.07205727  0.65198033  0.03976880     0.09200
H767        H  0.16008399  0.70834124  0.14320807     0.06800
H768        H  0.17396547  0.56748503  0.11243053     0.06600
C769        C  0.30951127  0.63387686  0.95278686     0.03700
C770        C  0.27217686  0.65196009  0.98045028    -0.12500
C771        C  0.24248266  0.68753171  0.96483153     0.01200
C772        C  0.24826793  0.70368680  0.92107968    -0.11000
C773        C  0.28439043  0.68662512  0.89216401     0.03700
C774        C  0.31631315  0.65226215  0.90842232    -0.10400
H775        H  0.26707621  0.63926320  0.01454623     0.09200
H776        H  0.22458534  0.73082341  0.90962415     0.06800
H777        H  0.34508436  0.63921487  0.88662254     0.06600
O778        O  0.21986253  0.80364978  0.64490874    -0.78000
C779        C  0.36233702  0.72261034  0.67808476     0.83100
O780        O  0.18149603  0.69261781  0.72719379    -0.79100
O781        O  0.32348542  0.72453306  0.82896264    -0.80600
O782        O  0.31178395  0.87981762  0.76287592    -0.80400
O783        O  0.20270015  0.86313887  0.68703510    -0.79000
Zn784      Zn  0.26328960  0.75995800  0.67945456     1.55700
O785        O  0.36483296  0.82701984  0.78792549    -0.80400
Cd786      Cd  0.24687603  0.84412204  0.74504034     1.59700
Cd787      Cd  0.21130228  0.74305138  0.77113726     1.59600
O788        O  0.19955860  0.85711128  0.79873428    -0.80400
O789        O  0.26454671  0.77788245  0.74198367    -1.90900
Cd790      Cd  0.33217071  0.76363607  0.76921036     1.59900
O791        O  0.16225656  0.79021477  0.79961736    -0.80300
O792        O  0.36915445  0.72118194  0.72094445    -0.79000
C793        C  0.19825709  0.67713479  0.68964956     0.83500
C794        C  0.19628013  0.84034992  0.65082957     0.83200
O795        O  0.33521956  0.75352248  0.66092369    -0.77900
C796        C  0.35215849  0.86843241  0.78293523     0.84000
O797        O  0.23175676  0.69840266  0.66795409    -0.78000
C798        C  0.16450520  0.83162786  0.81180821     0.84100
C799        C  0.28443032  0.70649618  0.84579564     0.84500
O800        O  0.24219155  0.71007097  0.82650986    -0.80500
C801        C  0.17945986  0.74463019  0.06282170    -0.08600
C802        C  0.13162708  0.72635870  0.05628492     0.07600
C803        C  0.11819040  0.72292198  0.01054827    -0.02400
C804        C  0.15467016  0.70896530  0.97997315    -0.06800
C805        C  0.20465509  0.70850655  0.99367898     0.06700
C806        C  0.21745449  0.73118512  0.03361516    -0.01900
Br807      Br  0.28503511  0.74333612  0.04958167    -0.01600
H808        H  0.18955506  0.75922790  0.09487389     0.10600
H809        H  0.14418047  0.69726908  0.94682948     0.08600
Br810      Br  0.05029872  0.72777570  0.99239426    -0.02000
C811        C  0.40949114  0.09011494  0.74009300    -0.08600
C812        C  0.45219717  0.09777457  0.71350129     0.07600
C813        C  0.49137038  0.06645482  0.71656470    -0.02400
C814        C  0.48333474  0.02517182  0.73834459    -0.06800
C815        C  0.43701258  0.01536326  0.75778125     0.06700
C816        C  0.40120204  0.04914128  0.76079333    -0.01900
Br817      Br  0.33948702  0.04081650  0.79248037    -0.01600
H818        H  0.37950127  0.11401283  0.74136423     0.10600
H819        H  0.51304529  0.00089031  0.74024269     0.08600
Br820      Br  0.55596013  0.07898317  0.69202969    -0.02000
C821        C  0.96942209  0.97274365  0.75658457    -0.08600
C822        C  0.93801930  0.98919318  0.79001585     0.07600
C823        C  0.89930563  0.96234748  0.80765165    -0.02400
C824        C  0.88758073  0.92245736  0.78645793    -0.06800
C825        C  0.91232431  0.91121171  0.74670428     0.06700
C826        C  0.95737205  0.93269788  0.73541786    -0.01900
Br827      Br  0.99526537  0.91509344  0.68361191    -0.01600
H828        H  0.00067467  0.99251476  0.74474079     0.10600
H829        H  0.85363378  0.90520672  0.79596056     0.08600
Br830      Br  0.85628090  0.98183833  0.85552293    -0.02000
C831        C  0.96028834  0.80421418  0.89194648    -0.08600
C832        C  0.00877130  0.79202029  0.87975370     0.07600
C833        C  0.02211891  0.74645307  0.87751745    -0.02400
C834        C  0.98648095  0.71426749  0.88543952    -0.06800
C835        C  0.93812403  0.72625186  0.89757320     0.06700
C836        C  0.92508327  0.77152990  0.90179679    -0.01900
Br837      Br  0.86075080  0.79014024  0.92188722    -0.01600
H838        H  0.95002417  0.83922294  0.89440935     0.10600
H839        H  0.99661819  0.67936488  0.88140011     0.08600
Br840      Br  0.08828669  0.72463330  0.86706398    -0.02000
C841        C  0.70145192  0.38174946  0.96838894    -0.08600
C842        C  0.72588571  0.34170180  0.96050937     0.07600
C843        C  0.70323656  0.30029433  0.97088068    -0.02400
C844        C  0.66003063  0.30017139  0.99639182    -0.06800
C845        C  0.63962500  0.34084086  0.01055222     0.06700
C846        C  0.65824104  0.38189034  0.99308301    -0.01900
Br847      Br  0.63515461  0.44041394  0.00951314    -0.01600
H848        H  0.71790557  0.41334424  0.95773494     0.10600
H849        H  0.64639839  0.26871040  0.00998932     0.08600
Br850      Br  0.73208826  0.24355916  0.95554487    -0.02000
C851        C  0.90738356  0.23402208  0.49876580    -0.08600
C852        C  0.91914698  0.27928571  0.49515754     0.07600
C853        C  0.96944060  0.28548305  0.48262027    -0.02400
C854        C  0.00530526  0.26153401  0.50687827    -0.06800
C855        C  0.98912943  0.22527284  0.53350632     0.06700
C856        C  0.93925536  0.20921926  0.52650375    -0.01900
Br857      Br  0.90664491  0.16415439  0.56278420    -0.01600
H858        H  0.86882759  0.22404018  0.49684000     0.10600
H859        H  0.04435647  0.26942037  0.50338882     0.08600
Br860      Br  0.98843470  0.31986268  0.43093161    -0.02000
C861        C  0.47524080  0.26984034  0.95603128    -0.08600
C862        C  0.45491159  0.27927018  0.91346049     0.07600
C863        C  0.48268497  0.27099031  0.87401804    -0.02400
C864        C  0.52818308  0.25016902  0.87766427    -0.06800
C865        C  0.54732780  0.23811963  0.91999477     0.06700
C866        C  0.52133460  0.24949575  0.95962839    -0.01900
Br867      Br  0.54549598  0.23622662  0.01914244    -0.01600
H868        H  0.45484311  0.27786517  0.98651024     0.10600
H869        H  0.54748265  0.24123938  0.84685688     0.08600
Br870      Br  0.46227214  0.28861697  0.81415982    -0.02000
C871        C  0.20195989  0.90796827  0.43893217    -0.08600
C872        C  0.22617867  0.87327041  0.41696784     0.07600
C873        C  0.21566795  0.82797412  0.42847485    -0.02400
C874        C  0.18421916  0.81865881  0.46445092    -0.06800
C875        C  0.16486093  0.85368706  0.48960550     0.06700
C876        C  0.17291763  0.89869957  0.47628017    -0.01900
Br877      Br  0.15543879  0.94924242  0.51264589    -0.01600
H878        H  0.21154661  0.94249688  0.43120077     0.10600
H879        H  0.17858936  0.78426212  0.47541297     0.08600
Br880      Br  0.24988703  0.77740760  0.40348759    -0.02000
C881        C  0.36785199  0.47844970  0.33204078    -0.08600
C882        C  0.32706054  0.49749245  0.35438387     0.07600
C883        C  0.27906043  0.48926152  0.33808331    -0.02400
C884        C  0.27304811  0.46999537  0.29562303    -0.06800
C885        C  0.31480035  0.45824719  0.27014043     0.06700
C886        C  0.36215479  0.45976768  0.28961091    -0.01900
Br887      Br  0.42047535  0.43930112  0.25862067    -0.01600
H888        H  0.40517795  0.48377754  0.34447498     0.10600
H889        H  0.23616026  0.46552096  0.28189886     0.08600
Br890      Br  0.22189644  0.50657254  0.37172277    -0.02000
C891        C  0.76305765  0.86505812  0.98514187    -0.08600
C892        C  0.77604176  0.90674263  0.00264765     0.07600
C893        C  0.77222473  0.94545497  0.97545200    -0.02400
C894        C  0.75644338  0.94151400  0.93092277    -0.06800
C895        C  0.74041819  0.89999031  0.91395283     0.06700
C896        C  0.74444507  0.86114237  0.94188989    -0.01900
Br897      Br  0.72135398  0.80167757  0.92777229    -0.01600
H898        H  0.76751132  0.83494546  0.00541982     0.10600
H899        H  0.75176978  0.97172083  0.91086921     0.08600
Br900      Br  0.78422718  0.00464197  0.99856421    -0.02000
C901        C  0.07133901  0.76999646  0.40243209    -0.08600
C902        C  0.05599244  0.72526520  0.39950453     0.07600
C903        C  0.00730737  0.71457207  0.38630138    -0.02400
C904        C  0.97514259  0.74880440  0.37609769    -0.06800
C905        C  0.99168299  0.79344271  0.37435922     0.06700
C906        C  0.04034650  0.80418690  0.38833014    -0.01900
Br907      Br  0.06923951  0.86316878  0.38513611    -0.01600
H908        H  0.10921798  0.77789458  0.41156606     0.10600
H909        H  0.93727898  0.73999754  0.36767541     0.08600
Br910      Br  0.98390175  0.65476180  0.37396769    -0.02000
C911        C  0.72019328  0.05615685  0.26881269    -0.08600
C912        C  0.72980065  0.03546035  0.22677500     0.07600
C913        C  0.75942744  0.99689387  0.22641220    -0.02400
C914        C  0.76967741  0.97562253  0.26776556    -0.06800
C915        C  0.74225820  0.98828916  0.30651369     0.06700
C916        C  0.73110043  0.03405912  0.30882646    -0.01900
Br917      Br  0.73042179  0.06726021  0.36421355    -0.01600
H918        H  0.70339632  0.08901860  0.27088202     0.10600
H919        H  0.78960722  0.94415628  0.26743096     0.08600
Br920      Br  0.78498975  0.97248253  0.17140112    -0.02000
C921        C  0.86579561  0.49782842  0.32403783    -0.08600
C922        C  0.81770238  0.48775586  0.34033974     0.07600
C923        C  0.77676039  0.49594816  0.31213025    -0.02400
C924        C  0.78468552  0.50933071  0.26747033    -0.06800
C925        C  0.83307523  0.51547629  0.25074836     0.06700
C926        C  0.87364613  0.51055205  0.27962954    -0.01900
Br927      Br  0.94056220  0.52285886  0.26063782    -0.01600
H928        H  0.89833996  0.49296047  0.34467826     0.10600
H929        H  0.75310303  0.51672130  0.24614567     0.08600
Br930      Br  0.70989668  0.48890694  0.33341560    -0.02000
C931        C  0.19884176  0.54952545  0.79395739    -0.08600
C932        C  0.21784658  0.53200364  0.75350323     0.07600
C933        C  0.25393243  0.49819248  0.75598646    -0.02400
C934        C  0.26338450  0.47778871  0.79794723    -0.06800
C935        C  0.23064074  0.48570651  0.83441330     0.06700
C936        C  0.20859149  0.52849493  0.83492766    -0.01900
Br937      Br  0.19195085  0.56016458  0.88918574    -0.01600
H938        H  0.17664646  0.57975981  0.79372570     0.10600
H939        H  0.28786553  0.44906971  0.79896227     0.08600
Br940      Br  0.28897157  0.47798587  0.70352656    -0.02000
C941        C  0.32749613  0.17695763  0.95176417    -0.08600
C942        C  0.28317781  0.19585554  0.96695032     0.07600
C943        C  0.28529796  0.23340671  0.99543764    -0.02400
C944        C  0.33111718  0.24519875  0.01450145    -0.06800
C945        C  0.36975448  0.21340200  0.01301239     0.06700
C946        C  0.37187261  0.18858723  0.97231372    -0.01900
Br947      Br  0.43118051  0.16433646  0.94635551    -0.01600
H948        H  0.32740199  0.15274891  0.92455882     0.10600
H949        H  0.33207197  0.27172477  0.03934914     0.08600
Br950      Br  0.22714472  0.26656604  0.01127818    -0.02000
C951        C  0.56444498  0.43080756  0.80093928    -0.08600
C952        C  0.53920333  0.46714638  0.78168414     0.07600
C953        C  0.50041096  0.45855642  0.75119679    -0.02400
C954        C  0.49424049  0.41484399  0.73459892    -0.06800
C955        C  0.53243863  0.38345738  0.74223802     0.06700
C956        C  0.55811057  0.38800779  0.78353588    -0.01900
Br957      Br  0.59232527  0.33980578  0.81322457    -0.01600
H958        H  0.58912135  0.43583462  0.82935362     0.10600
H959        H  0.46874770  0.40972593  0.70683143     0.08600
Br960      Br  0.45872942  0.50567921  0.72897870    -0.02000
C961        C  0.43684732  0.27242206  0.40247348    -0.08600
C962        C  0.42913058  0.23757031  0.43371207     0.07600
C963        C  0.45906776  0.23568437  0.47300432    -0.02400
C964        C  0.50300444  0.26033796  0.47399650    -0.06800
C965        C  0.51570356  0.28716434  0.43692468     0.06700
C966        C  0.48020459  0.29713398  0.40376532    -0.01900
Br967      Br  0.49081624  0.34163828  0.35744267    -0.01600
H968        H  0.41311151  0.27662341  0.37333490     0.10600
H969        H  0.52856741  0.25625390  0.50190095     0.08600
Br970      Br  0.44480716  0.19643396  0.52323542    -0.02000
C971        C  0.34610591  0.27723836  0.49650632    -0.08600
C972        C  0.37555018  0.31587802  0.50179885     0.07600
C973        C  0.36760737  0.35143322  0.47088968    -0.02400
C974        C  0.32096198  0.35625421  0.45192820    -0.06800
C975        C  0.28523612  0.32298019  0.45874168     0.06700
C976        C  0.29944215  0.28120122  0.47680637    -0.01900
Br977      Br  0.25474789  0.23114726  0.48109235    -0.01600
H978        H  0.35336820  0.24782285  0.51696601     0.10600
H979        H  0.31236899  0.38601637  0.43227728     0.08600
Br980      Br  0.41590846  0.39643660  0.45620426    -0.02000
C981        C  0.40042514  0.75859257  0.55250403    -0.08600
C982        C  0.44969313  0.74245686  0.55074446     0.07600
C983        C  0.45901871  0.70571711  0.52220595    -0.02400
C984        C  0.41856233  0.67950789  0.50787093    -0.06800
C985        C  0.37241004  0.68609901  0.52944467     0.06700
C986        C  0.36199518  0.73194979  0.53532404    -0.01900
Br987      Br  0.29549868  0.75418033  0.53296844    -0.01600
H988        H  0.39188203  0.79077583  0.56733968     0.10600
H989        H  0.42532641  0.64901647  0.48945813     0.08600
Br990      Br  0.52432086  0.69306398  0.50015871    -0.02000
C991        C  0.23790269  0.96606126  0.28040346    -0.08600
C992        C  0.19556617  0.94504260  0.26302161     0.07600
C993        C  0.15470430  0.93674392  0.29126292    -0.02400
C994        C  0.15319727  0.95601142  0.33376093    -0.06800
C995        C  0.19082105  0.98579349  0.34717180     0.06700
C996        C  0.23610204  0.98562044  0.32319825    -0.01900
Br997      Br  0.29287497  0.01774861  0.34477760    -0.01600
H998        H  0.27119337  0.96899921  0.26004751     0.10600
H999        H  0.11877142  0.95364945  0.35251781     0.08600
Br1000     Br  0.09808881  0.90295399  0.27139907    -0.02000
C1001       C  0.53091307  0.73101127  0.01956482    -0.08600
C1002       C  0.54963861  0.76043737  0.05248398     0.07600
C1003       C  0.60036554  0.77429108  0.04783571    -0.02400
C1004       C  0.63123516  0.74977983  0.01858600    -0.06800
C1005       C  0.61424226  0.70672854  0.00720344     0.06700
C1006       C  0.56483146  0.70864380  0.99183157    -0.01900
Br1007     Br  0.54245409  0.67448832  0.94164772    -0.01600
H1008       H  0.49139679  0.72621961  0.01513748     0.10600
H1009       H  0.67069264  0.75664926  0.01858907     0.08600
Br1010     Br  0.63192989  0.81928758  0.08435584    -0.02000
C1011       C  0.89631448  0.67605998  0.48312970    -0.08600
C1012       C  0.88715859  0.70451111  0.52023518     0.07600
C1013       C  0.84647283  0.73318015  0.51411303    -0.02400
C1014       C  0.80438336  0.71524102  0.49322264    -0.06800
C1015       C  0.80798894  0.67358863  0.47133430     0.06700
C1016       C  0.85541824  0.65630835  0.46211205    -0.01900
Br1017     Br  0.86518681  0.60491717  0.42429373    -0.01600
H1018       H  0.93217369  0.66050072  0.47867750     0.10600
H1019       H  0.76951947  0.73312874  0.49432883     0.08600
Br1020     Br  0.84312180  0.78950633  0.54461612    -0.02000
C1021       C  0.68046232  0.17629699  0.46617800    -0.08600
C1022       C  0.72355918  0.19549451  0.48455390     0.07600
C1023       C  0.71836196  0.23498635  0.51020122    -0.02400
C1024       C  0.67112287  0.24589254  0.52696779    -0.06800
C1025       C  0.63354033  0.21330851  0.52298044     0.06700
C1026       C  0.63452704  0.19112405  0.48097778    -0.01900
Br1027     Br  0.57650417  0.17222265  0.44890273    -0.01600
H1028       H  0.68267165  0.15213859  0.43899224     0.10600
H1029       H  0.66753136  0.27262079  0.55137250     0.08600
Br1030     Br  0.77274029  0.27425454  0.52175925    -0.02000
C1031       C  0.91070820  0.25992165  0.06488412    -0.08600
C1032       C  0.95961311  0.24440098  0.06033075     0.07600
C1033       C  0.96830054  0.20845637  0.03096984    -0.02400
C1034       C  0.92801465  0.18181388  0.01737055    -0.06800
C1035       C  0.88077822  0.18928390  0.03687194     0.06700
C1036       C  0.87136333  0.23438822  0.04862631    -0.01900
Br1037     Br  0.80593294  0.25898613  0.05245519    -0.01600
H1038       H  0.90303643  0.29133010  0.08172435     0.10600
H1039       H  0.93542241  0.15102597  0.99948770     0.08600
Br1040     Br  0.03348751  0.19608628  0.00863522    -0.02000
loop_ 
_geom_bond_atom_site_label_1 
_geom_bond_atom_site_label_2 
_geom_bond_distance 
_geom_bond_site_symmetry_2 
_ccdc_geom_bond_type 
O1           C17   1.296       .  A
O1           Zn7   2.138       .  S
C2           O18   1.292       .  A
C2           O15   1.283       .  A
C2           C37   1.516       .  S
O3           C16   1.283       .  A
O3          Cd10   2.084   1_554  S
O4           C22   1.273       .  A
O4          Cd13   2.135   1_656  S
O5           C19   1.289       .  A
O5           Cd9   2.157   1_546  S
O6           C17   1.290       .  A
O6           Cd9   2.167       .  S
Zn7          O18   2.157   1_465  S
Zn7          O20   2.117   1_455  S
Zn7          O12   2.032   1_565  S
O8           C19   1.275       .  A
O8          Cd13   2.080   1_556  S
Cd9          O11   2.121   1_554  S
Cd9          O12   2.070   1_565  S
Cd10         O14   2.056   1_655  S
Cd10         O23   2.100   1_565  S
Cd10         O12   1.964   1_666  S
O11          C21   1.273       .  A
O12         Cd13   2.044       .  S
Cd13         O15   2.105   1_455  S
O14          C21   1.278       .  A
C16          O20   1.276       .  A
C16         C460   1.521       .  S
C17         C151   1.527       .  S
C19         C333   1.498       .  S
C21         C662   1.494       .  S
C22          O23   1.282       .  A
C22         C680   1.512       .  S
C24         C739   1.486       .  S
C24          C25   1.388       .  A
C24          C29   1.420       .  A
C25          C26   1.381       .  A
C25          H30   1.087   1_455  S
C26        C1032   1.474   1_455  S
C26          C27   1.411       .  A
C27          C28   1.414       .  A
C27          H31   1.084       .  S
C28         C184   1.500       .  S
C28          C29   1.431       .  A
C29          H32   1.083       .  S
C33          C61   1.532       .  S
C33          C34   1.413       .  A
C33          C38   1.454       .  A
C34          C35   1.391       .  A
C34          H39   1.080       .  S
C35        C1035   1.518       .  S
C35          C36   1.394       .  A
C36          C37   1.413       .  A
C36          H40   1.086       .  S
C37          C38   1.454       .  A
C38          H41   1.082       .  S
C42         C557   1.513       .  S
C42          C43   1.413       .  A
C42          C47   1.440       .  A
C43          C44   1.406       .  A
C43          H48   1.083       .  S
C44        C1022   1.456       .  S
C44          C45   1.375       .  A
C45          C46   1.380       .  A
C45          H49   1.089       .  S
C46          C81   1.482       .  S
C46          C47   1.423       .  A
C47          H50   1.082       .  S
C51         C244   1.513       .  S
C51          C52   1.442       .  A
C51          C56   1.395       .  A
C52          C53   1.441       .  A
C52          H57   1.082       .  S
C53         C658   1.511       .  S
C53          C54   1.401       .  A
C54          C55   1.407       .  A
C54          H58   1.084       .  S
C55        C1025   1.502       .  S
C55          C56   1.390       .  A
C56          H59   1.080       .  S
O60          C76   1.285       .  A
O60         Zn66   2.049       .  S
C61          O77   1.290       .  A
C61          O74   1.285       .  A
O62          C75   1.292       .  A
O62         Cd69   2.187       .  S
O63          C81   1.269       .  A
O63         Cd72   2.071       .  S
O64          C78   1.293       .  A
O64         Cd68   2.121       .  S
O65          C76   1.285       .  A
O65         Cd68   2.215       .  S
Zn66         O77   2.065       .  S
Zn66         O79   2.024       .  S
Zn66         O71   1.927       .  S
O67          C78   1.288       .  A
O67         Cd72   2.182       .  S
Cd68         O70   2.079       .  S
Cd68         O71   2.053       .  S
Cd69         O73   2.163       .  S
Cd69         O82   2.117       .  S
Cd69         O71   2.001       .  S
O70          C80   1.272       .  A
O71         Cd72   2.075       .  S
Cd72         O74   2.169       .  S
O73          C80   1.294       .  A
C75          O79   1.269       .  A
C75         C428   1.506       .  S
C76         C621   1.550       .  S
C78         C406   1.533       .  S
C80         C265   1.510       .  S
C81          O82   1.286       .  A
C83         C122   1.511       .  S
C83          C84   1.392       .  A
C83          C88   1.451       .  A
C84          C85   1.386       .  A
C84          H89   1.085       .  S
C85        C1012   1.503       .  S
C85          C86   1.405       .  A
C86          C87   1.413       .  A
C86          H90   1.078       .  S
C87         C712   1.545       .  S
C87          C88   1.446       .  A
C88          H91   1.082       .  S
C92         C319   1.503       .  S
C92          C93   1.435       .  A
C92          C97   1.408       .  A
C93          C94   1.426       .  A
C93          H98   1.083       .  S
C94         C494   1.485       .  S
C94          C95   1.386       .  A
C95          C96   1.377       .  A
C95          H99   1.088       .  S
C96        C1015   1.457       .  S
C96          C97   1.403       .  A
C97         H100   1.084       .  S
O101        C117   1.270       .  A
O101       Zn107   2.019       .  S
C102        O118   1.278   1_655  A
C102        O115   1.278       .  A
C102        C610   1.491       .  S
O103        C116   1.289       .  A
O103       Cd110   2.151       .  S
O104        C122   1.272       .  A
O104       Cd113   2.104   1_655  S
O105        C119   1.288       .  A
O105       Cd109   2.160       .  S
O106        C117   1.288       .  A
O106       Cd109   2.136       .  S
Zn107       O118   2.023       .  S
Zn107       O120   2.059   1_455  S
Zn107       O112   1.966       .  S
O108        C119   1.290       .  A
O108       Cd113   2.159       .  S
Cd109       O111   2.096       .  S
Cd109       O112   2.044       .  S
Cd110       O114   2.161   1_655  S
Cd110       O123   2.165       .  S
Cd110       O112   1.987   1_655  S
O111        C121   1.272       .  A
O112       Cd113   2.070       .  S
Cd113       O115   2.133   1_455  S
O114        C121   1.296       .  A
C116        O120   1.269       .  A
C116        C408   1.515       .  S
C117        C258   1.494       .  S
C119        C351   1.521       .  S
C121        C442   1.505       .  S
C122        O123   1.294       .  A
C124        C176   1.495       .  S
C124        C125   1.416       .  A
C124        C129   1.426       .  A
C125        C126   1.416       .  A
C125        H130   1.083       .  S
C126       C1002   1.477       .  S
C126        C127   1.375       .  A
C127        C128   1.384       .  A
C127        H131   1.086       .  S
C128        C384   1.471       .  S
C128        C129   1.412       .  A
C129        H132   1.083       .  S
C133        C498   1.494       .  S
C133        C134   1.433       .  A
C133        C138   1.400       .  A
C134        C135   1.429       .  A
C134        H139   1.082       .  S
C135        C520   1.505       .  S
C135        C136   1.411       .  A
C136        C137   1.393       .  A
C136        H140   1.083       .  S
C137       C1005   1.518       .  S
C137        C138   1.401       .  A
C138        H141   1.084       .  S
C142        C201   1.522       .  S
C142        C143   1.401       .  A
C142        C147   1.439       .  A
C143        C144   1.391       .  A
C143        H148   1.081       .  S
C144        C995   1.476   1_545  S
C144        C145   1.391       .  A
C145        C146   1.402       .  A
C145        H149   1.084   1_545  S
C146        C558   1.508       .  S
C146        C147   1.444       .  A
C147        H150   1.082       .  S
C151        C152   1.405       .  A
C151        C156   1.452       .  A
C152        C153   1.400       .  A
C152        H157   1.084       .  S
C153        C992   1.458       .  S
C153        C154   1.379       .  A
C154        C155   1.391       .  A
C154        H158   1.088       .  S
C155        C175   1.513       .  S
C155        C156   1.446       .  A
C156        H159   1.082       .  S
O160        C176   1.283       .  A
O160       Zn166   2.068       .  S
C161        O177   1.290       .  A
C161        O174   1.285       .  A
C161        C764   1.513       .  S
O162        C175   1.282       .  A
O162       Cd169   2.120       .  S
O163        C181   1.273       .  A
O163       Cd172   2.133       .  S
O164        C178   1.282       .  A
O164       Cd168   2.147       .  S
O165        C176   1.286       .  A
O165       Cd168   2.126       .  S
Zn166       O177   2.067       .  S
Zn166       O179   2.110       .  S
Zn166       O171   1.958       .  S
O167        C178   1.291       .  A
O167       Cd172   2.107       .  S
Cd168       O170   2.115       .  S
Cd168       O171   2.059       .  S
Cd169       O173   2.049       .  S
Cd169       O182   2.105       .  S
Cd169       O171   1.950       .  S
O170        C180   1.273       .  A
O171       Cd172   2.047       .  S
Cd172       O174   2.153       .  S
O173        C180   1.278       .  A
C175        O179   1.277       .  A
C178        C503   1.514       .  S
C180        C565   1.499       .  S
C181        O182   1.286       .  A
C181        C446   1.522       .  S
O183        C199   1.281       .  A
O183       Zn189   2.011       .  S
C184        O200   1.278       .  A
C184        O197   1.291       .  A
O185        C198   1.280       .  A
O185       Cd192   2.092       .  S
O186        C204   1.277       .  A
O186       Cd195   2.126       .  S
O187        C201   1.290       .  A
O187       Cd191   2.106       .  S
O188        C199   1.284       .  A
O188       Cd191   2.156       .  S
Zn189       O200   2.033       .  S
Zn189       O202   2.070       .  S
Zn189       O194   1.950       .  S
O190        C201   1.284       .  A
O190       Cd195   2.160       .  S
Cd191       O193   2.137       .  S
Cd191       O194   2.042       .  S
Cd192       O196   2.110       .  S
Cd192       O205   2.042       .  S
Cd192       O194   1.959       .  S
O193        C203   1.276       .  A
O194       Cd195   2.055       .  S
Cd195       O197   2.168       .  S
O196        C203   1.283       .  A
C198        O202   1.272       .  A
C198        C510   1.498       .  S
C199        C324   1.513       .  S
C203        C278   1.515       .  S
C204        O205   1.277       .  A
C204        C256   1.490       .  S
C206        C240   1.491       .  S
C206        C207   1.425       .  A
C206        C211   1.388       .  A
C207        C208   1.435       .  A
C207        H212   1.083       .  S
C208        C697   1.515       .  S
C208        C209   1.417       .  A
C209        C210   1.416       .  A
C209        H213   1.083       .  S
C210        C982   1.481       .  S
C210        C211   1.381       .  A
C211        H214   1.087       .  S
C215        C779   1.510       .  S
C215        C216   1.410       .  A
C215        C220   1.435       .  A
C216        C217   1.397       .  A
C216        H221   1.081       .  S
C217        C985   1.518       .  S
C217        C218   1.394       .  A
C218        C219   1.405       .  A
C218        H222   1.086       .  S
C219        C302   1.495       .  S
C219        C220   1.436       .  A
C220        H223   1.082       .  S
O224        C240   1.279       .  A
O224       Zn230   2.011       .  S
C225        O241   1.274       .  A
C225        O238   1.288       .  A
C225        C567   1.498       .  S
O226        C239   1.288       .  A
O226       Cd233   2.151   1_565  S
O227        C245   1.266       .  A
O227       Cd236   2.066       .  S
O228        C242   1.291       .  A
O228       Cd232   2.131   1_545  S
O229        C240   1.283       .  A
O229       Cd232   2.140       .  S
Zn230       O241   2.047       .  S
Zn230       O243   2.008       .  S
Zn230       O235   1.953       .  S
O231        C242   1.284       .  A
O231       Cd236   2.179       .  S
Cd232       O234   2.117   1_565  S
Cd232       O235   2.044       .  S
Cd233       O237   2.152       .  S
Cd233       O246   2.160       .  S
Cd233       O235   1.982   1_545  S
O234        C244   1.275       .  A
O235       Cd236   2.027   1_565  S
Cd236       O238   2.094   1_545  S
O237        C244   1.294       .  A
C239        O243   1.269       .  A
C239        C433   1.502       .  S
C242        C742   1.540       .  S
C245        O246   1.293       .  A
C245        C274   1.497       .  S
C247        C316   1.523       .  S
C247        C248   1.403       .  A
C247        C252   1.454       .  A
C248        C249   1.379       .  A
C248        H253   1.084       .  S
C249        C972   1.482       .  S
C249        C250   1.396       .  A
C250        C251   1.400       .  A
C250        H254   1.079       .  S
C251        C376   1.540       .  S
C251        C252   1.452       .  A
C252        H255   1.082       .  S
C256        C257   1.424       .  A
C256        C261   1.393       .  A
C257        C258   1.436       .  A
C257        H262   1.082       .  S
C258        C259   1.403       .  A
C259        C260   1.395       .  A
C259        H263   1.084       .  S
C260        C975   1.453       .  S
C260        C261   1.372       .  A
C261        H264   1.087       .  S
C265        C266   1.402       .  A
C265        C270   1.442       .  A
C266        C267   1.395       .  A
C266        H271   1.084       .  S
C267        C965   1.449       .  S
C267        C268   1.372       .  A
C268        C269   1.391       .  A
C268        H272   1.087       .  S
C269        C321   1.492       .  S
C269        C270   1.432       .  A
C270        H273   1.082       .  S
C274        C275   1.386       .  A
C274        C279   1.436       .  A
C275        C276   1.389       .  A
C275        H280   1.082       .  S
C276        C962   1.471       .  S
C276        C277   1.398       .  A
C277        C278   1.406       .  A
C277        H281   1.084       .  S
C278        C279   1.436       .  A
C279        H282   1.081       .  S
C283        C714   1.520       .  S
C283        C284   1.411       .  A
C283        C288   1.443       .  A
C284        C285   1.404       .  A
C284        H289   1.084       .  S
C285        C952   1.461       .  S
C285        C286   1.378       .  A
C286        C287   1.385       .  A
C286        H290   1.088       .  S
C287        C534   1.503       .  S
C287        C288   1.437       .  A
C288        H291   1.079       .  S
C292        C317   1.512       .  S
C292        C293   1.431       .  A
C292        C297   1.396       .  A
C293        C294   1.439       .  A
C293        H298   1.082       .  S
C294        C655   1.505       .  S
C294        C295   1.405       .  A
C295        C296   1.390       .  A
C295        H299   1.081       .  S
C296        C955   1.493       .  S
C296        C297   1.398       .  A
C297        H300   1.078       .  S
O301        C317   1.287       .  A
O301       Zn307   2.060       .  S
C302        O318   1.281       .  A
C302        O315   1.286       .  A
O303        C316   1.281       .  A
O303       Cd310   2.097       .  S
O304        C322   1.275       .  A
O304       Cd313   2.134       .  S
O305        C319   1.289       .  A
O305       Cd309   2.138       .  S
O306        C317   1.280       .  A
O306       Cd309   2.143       .  S
Zn307       O318   2.077       .  S
Zn307       O320   2.132       .  S
Zn307       O312   2.015       .  S
O308        C319   1.281       .  A
O308       Cd313   2.116       .  S
Cd309       O311   2.111       .  S
Cd309       O312   2.062       .  S
Cd310       O314   2.080       .  S
Cd310       O323   2.074       .  S
Cd310       O312   1.956       .  S
O311        C321   1.273       .  A
O312       Cd313   2.033       .  S
Cd313       O315   2.125       .  S
O314        C321   1.281       .  A
C316        O320   1.277       .  A
C322        O323   1.279       .  A
C322        C501   1.507       .  S
C324        C325   1.411       .  A
C324        C329   1.430       .  A
C325        C326   1.400       .  A
C325        H330   1.079       .  S
C326        C945   1.507       .  S
C326        C327   1.384       .  A
C327        C328   1.400       .  A
C327        H331   1.077       .  S
C328        C404   1.494       .  S
C328        C329   1.432       .  A
C329        H332   1.082       .  S
C333        C334   1.437       .  A
C333        C338   1.405       .  A
C334        C335   1.426       .  A
C334        H339   1.083       .  S
C335        C381   1.493       .  S
C335        C336   1.391       .  A
C336        C337   1.381       .  A
C336        H340   1.088       .  S
C337        C942   1.459       .  S
C337        C338   1.401       .  A
C338        H341   1.084   1_556  S
C342        C737   1.503       .  S
C342        C343   1.401       .  A
C342        C347   1.436       .  A
C343        C344   1.398       .  A
C343        H348   1.076       .  S
C344        C935   1.502       .  S
C344        C345   1.402       .  A
C345        C346   1.399       .  A
C345        H349   1.078       .  S
C346        C361   1.514       .  S
C346        C347   1.430       .  A
C347        H350   1.082       .  S
C351        C352   1.444       .  A
C351        C356   1.412       .  A
C352        C353   1.436       .  A
C352        H357   1.082       .  S
C353        C793   1.501       .  S
C353        C354   1.384       .  A
C354        C355   1.384       .  A
C354        H358   1.088       .  S
C355        C932   1.470       .  S
C355        C356   1.408       .  A
C356        H359   1.084       .  S
O360        C376   1.280       .  A
O360       Zn366   2.119       .  S
C361        O377   1.283       .  A
C361        O374   1.281       .  A
O362        C375   1.293       .  A
O362       Cd369   2.149       .  S
O363        C381   1.278       .  A
O363       Cd372   2.116       .  S
O364        C378   1.292       .  A
O364       Cd368   2.159       .  S
O365        C376   1.294       .  A
O365       Cd368   2.132       .  S
Zn366       O377   2.037       .  S
Zn366       O379   2.065       .  S
Zn366       O371   2.005       .  S
O367        C378   1.291       .  A
O367       Cd372   2.163       .  S
Cd368       O370   2.153       .  S
Cd368       O371   2.018       .  S
Cd369       O373   2.166       .  S
Cd369       O382   2.100       .  S
Cd369       O371   1.966       .  S
O370        C380   1.279       .  A
O371       Cd372   2.055       .  S
Cd372       O374   2.160       .  S
O373        C380   1.295       .  A
C375        O379   1.272       .  A
C375        C583   1.523       .  S
C378        C601   1.519       .  S
C380        C744   1.535       .  S
C381        O382   1.284       .  A
O383        C399   1.274       .  A
O383       Zn389   2.081       .  S
C384        O400   1.278       .  A
C384        O397   1.284       .  A
O385        C398   1.283   1_545  A
O385       Cd392   2.098       .  S
O386        C404   1.275       .  A
O386       Cd395   2.100   1_545  S
O387        C401   1.292       .  A
O387       Cd391   2.171   1_545  S
O388        C399   1.294       .  A
O388       Cd391   2.122   1_556  S
Zn389       O400   1.975   1_556  S
Zn389       O402   2.013       .  S
Zn389       O394   1.989   1_556  S
O390        C401   1.284       .  A
O390       Cd395   2.152   1_545  S
Cd391       O393   2.103   1_564  S
Cd391       O394   2.018       .  S
Cd392       O396   2.097       .  S
Cd392       O405   2.098   1_556  S
Cd392       O394   1.945   1_546  S
O393        C403   1.271       .  A
O394       Cd395   2.050       .  S
Cd395       O397   2.126       .  S
O396        C403   1.283       .  A
C398        O402   1.265       .  A
C398        C751   1.497       .  S
C399        C471   1.521       .  S
C401        C424   1.527       .  S
C403        C592   1.496       .  S
C404        O405   1.287       .  A
C406        C407   1.449       .  A
C406        C411   1.405       .  A
C407        C408   1.457       .  A
C407        H412   1.081       .  S
C408        C409   1.406       .  A
C409        C410   1.388       .  A
C409        H413   1.084       .  S
C410        C922   1.479       .  S
C410        C411   1.387       .  A
C411        H414   1.083       .  S
C415        C496   1.493       .  S
C415        C416   1.382       .  A
C415        C420   1.432       .  A
C416        C417   1.374       .  A
C416        H421   1.089       .  S
C417        C925   1.451       .  S
C417        C418   1.393       .  A
C418        C419   1.408       .  A
C418        H422   1.084       .  S
C419        C734   1.508       .  S
C419        C420   1.444       .  A
C420        H423   1.082       .  S
C424        C425   1.414       .  A
C424        C429   1.450       .  A
C425        C426   1.410       .  A
C425        H430   1.083   1_545  S
C426        C912   1.475       .  S
C426        C427   1.380       .  A
C427        C428   1.383       .  A
C427        H431   1.089       .  S
C428        C429   1.440       .  A
C429        H432   1.082       .  S
C433        C434   1.405       .  A
C433        C438   1.424       .  A
C434        C435   1.413       .  A
C434        H439   1.073       .  S
C435        C915   1.506       .  S
C435        C436   1.404       .  A
C436        C437   1.390       .  A
C436        H440   1.081       .  S
C437        C493   1.482       .  S
C437        C438   1.415       .  A
C438        H441   1.083       .  S
C442        C443   1.388       .  A
C442        C447   1.448       .  A
C443        C444   1.375       .  A
C443        H448   1.086       .  S
C444        C902   1.447       .  S
C444        C445   1.382       .  A
C445        C446   1.394       .  A
C445        H449   1.083       .  S
C446        C447   1.445       .  A
C447        H450   1.076       .  S
C451        C479   1.494       .  S
C451        C452   1.401       .  A
C451        C456   1.430       .  A
C452        C453   1.389       .  A
C452        H457   1.084       .  S
C453        C905   1.460       .  S
C453        C454   1.371       .  A
C454        C455   1.385       .  A
C454        H458   1.083       .  S
C455        C543   1.468       .  S
C455        C456   1.425       .  A
C456        H459   1.083       .  S
C460        C461   1.444       .  A
C460        C465   1.392       .  A
C461        C462   1.453       .  A
C461        H466   1.082       .  S
C462        C499   1.518       .  S
C462        C463   1.399       .  A
C463        C464   1.390       .  A
C463        H467   1.084       .  S
C464        C892   1.460       .  S
C464        C465   1.377       .  A
C465        H468   1.083       .  S
C469        C717   1.522       .  S
C469        C470   1.454       .  A
C469        C474   1.418       .  A
C470        C471   1.451       .  A
C470        H475   1.082       .  S
C471        C472   1.394       .  A
C472        C473   1.374       .  A
C472        H476   1.084       .  S
C473        C895   1.473       .  S
C473        C474   1.379       .  A
C474        H477   1.083       .  S
O478        C494   1.276       .  A
O478       Zn484   2.002       .  S
C479        O495   1.278       .  A
C479        O492   1.284       .  A
O480        C493   1.287       .  A
O480       Cd487   2.141       .  S
O481        C499   1.270       .  A
O481       Cd490   2.091       .  S
O482        C496   1.281       .  A
O482       Cd486   2.075       .  S
O483        C494   1.276       .  A
O483       Cd486   2.125       .  S
Zn484       O495   2.067       .  S
Zn484       O497   1.990       .  S
Zn484       O489   1.943       .  S
O485        C496   1.283       .  A
O485       Cd490   2.142       .  S
Cd486       O488   2.058       .  S
Cd486       O489   2.015       .  S
Cd487       O491   2.165       .  S
Cd487       O500   2.169       .  S
Cd487       O489   1.971       .  S
O488        C498   1.268       .  A
O489       Cd490   2.031       .  S
Cd490       O492   2.069       .  S
O491        C498   1.295       .  A
C493        O497   1.263       .  A
C499        O500   1.294       .  A
C501        C502   1.441       .  A
C501        C506   1.406       .  A
C502        C503   1.438       .  A
C502        H507   1.082       .  S
C503        C504   1.400       .  A
C504        C505   1.387       .  A
C504        H508   1.085       .  S
C505        C882   1.464       .  S
C505        C506   1.384       .  A
C506        H509   1.084       .  S
C510        C511   1.436       .  A
C510        C515   1.391       .  A
C511        C512   1.441       .  A
C511        H516   1.082       .  S
C512        C537   1.505       .  S
C512        C513   1.402       .  A
C513        C514   1.392       .  A
C513        H517   1.085       .  S
C514        C885   1.452       .  S
C514        C515   1.376       .  A
C515        H518   1.087       .  S
O519        C535   1.275       .  A
O519       Zn525   2.031       .  S
C520        O536   1.279       .  A
C520        O533   1.284       .  A
O521        C534   1.285       .  A
O521       Cd528   2.117       .  S
O522        C540   1.270       .  A
O522       Cd531   2.142       .  S
O523        C537   1.287       .  A
O523       Cd527   2.151       .  S
O524        C535   1.291       .  A
O524       Cd527   2.171   1_556  S
Zn525       O536   2.002   1_556  S
Zn525       O538   2.057       .  S
Zn525       O530   1.967   1_556  S
O526        C537   1.289       .  A
O526       Cd531   2.108       .  S
Cd527       O529   2.148   1_554  S
Cd527       O530   2.064       .  S
Cd528       O532   2.111       .  S
Cd528       O541   2.138   1_556  S
Cd528       O530   1.961   1_556  S
O529        C539   1.277       .  A
O530       Cd531   2.084       .  S
Cd531       O533   2.154       .  S
O532        C539   1.287       .  A
C534        O538   1.271       .  A
C535        C769   1.502       .  S
C539        C585   1.518       .  S
C540        O541   1.292       .  A
C540        C619   1.536       .  S
O542        C558   1.279       .  A
O542       Zn548   2.092   1_455  S
C543        O559   1.279       .  A
C543        O556   1.275       .  A
O544        C557   1.295       .  A
O544       Cd551   2.187       .  S
O545        C563   1.261       .  A
O545       Cd554   2.041       .  S
O546        C560   1.271       .  A
O546       Cd550   2.080   1_565  S
O547        C558   1.287       .  A
O547       Cd550   2.121       .  S
Zn548       O559   2.066   1_545  S
Zn548       O561   2.011       .  S
Zn548       O553   2.008   1_545  S
O549        C560   1.285       .  A
O549       Cd554   2.134   1_455  S
Cd550       O552   2.029       .  S
Cd550       O553   2.026   1_445  S
Cd551       O555   2.182       .  S
Cd551       O564   2.203   1_545  S
Cd551       O553   1.995   1_545  S
O552        C562   1.263       .  A
O553       Cd554   2.013       .  S
Cd554       O556   2.038       .  S
O555        C562   1.296   1_655  A
C557        O561   1.272       .  A
C560        C574   1.491       .  S
C562        C605   1.483       .  S
C563        O564   1.300       .  A
C563        C691   1.504       .  S
C565        C566   1.434       .  A
C565        C570   1.401       .  A
C566        C567   1.436       .  A
C566        H571   1.082       .  S
C567        C568   1.395       .  A
C568        C569   1.387       .  A
C568        H572   1.085       .  S
C569        C872   1.450       .  S
C569        C570   1.370       .  A
C570        H573   1.085       .  S
C574        C575   1.444       .  A
C574        C579   1.389       .  A
C575        C576   1.439       .  A
C575        H580   1.082       .  S
C576        C794   1.514       .  S
C576        C577   1.400       .  A
C577        C578   1.389       .  A
C577        H581   1.085       .  S
C578        C875   1.447       .  S
C578        C579   1.376       .  A
C579        H582   1.088       .  S
C583        C584   1.453       .  A
C583        C588   1.401       .  A
C584        C585   1.447       .  A
C584        H589   1.082       .  S
C585        C586   1.392       .  A
C586        C587   1.375       .  A
C586        H590   1.085       .  S
C587        C862   1.457       .  S
C587        C588   1.384       .  A
C588        H591   1.084       .  S
C592        C593   1.431       .  A
C592        C597   1.393       .  A
C593        C594   1.432       .  A
C593        H598   1.082       .  S
C594        C638   1.489       .  S
C594        C595   1.395       .  A
C595        C596   1.391       .  A
C595        H599   1.086       .  S
C596        C865   1.461       .  S
C596        C597   1.386       .  A
C597        H600   1.083       .  S
C601        C602   1.424       .  A
C601        C606   1.440       .  A
C602        C603   1.417       .  A
C602        H607   1.083       .  S
C603        C855   1.479   1_455  S
C603        C604   1.369       .  A
C604        C605   1.376       .  A
C604        H608   1.089       .  S
C605        C606   1.428       .  A
C606        H609   1.082       .  S
C610        C611   1.397       .  A
C610        C615   1.422       .  A
C611        C612   1.384       .  A
C611        H616   1.077       .  S
C612        C852   1.515       .  S
C612        C613   1.420       .  A
C613        C614   1.403       .  A
C613        H617   1.080       .  S
C614        C657   1.506       .  S
C614        C615   1.431       .  A
C615        H618   1.082       .  S
C619        C620   1.468       .  A
C619        C624   1.398       .  A
C620        C621   1.463       .  A
C620        H625   1.082       .  S
C621        C622   1.400       .  A
C622        C623   1.382       .  A
C622        H626   1.085       .  S
C623        C845   1.449       .  S
C623        C624   1.368       .  A
C624        H627   1.085       .  S
C628        C740   1.485       .  S
C628        C629   1.401       .  A
C628        C633   1.427       .  A
C629        C630   1.396       .  A
C629        H634   1.084       .  S
C630        C842   1.440       .  S
C630        C631   1.368       .  A
C631        C632   1.380       .  A
C631        H635   1.088       .  S
C632        C653   1.456       .  S
C632        C633   1.413       .  A
C633        H636   1.083       .  S
O637        C653   1.272       .  A
O637       Zn643   1.971       .  S
C638        O654   1.273       .  A
C638        O651   1.279       .  A
O639        C652   1.305       .  A
O639       Cd646   2.237       .  S
O640        C658   1.271       .  A
O640       Cd649   2.063       .  S
O641        C655   1.277       .  A
O641       Cd645   2.116       .  S
O642        C653   1.273       .  A
O642       Cd645   2.083       .  S
Zn643       O654   2.062       .  S
Zn643       O656   1.961       .  S
Zn643       O648   1.966       .  S
O644        C655   1.284       .  A
O644       Cd649   2.110       .  S
Cd645       O647   2.045       .  S
Cd645       O648   2.061       .  S
Cd646       O650   2.206       .  S
Cd646       O659   2.226       .  S
Cd646       O648   2.016       .  S
O647        C657   1.268       .  A
O648       Cd649   2.007       .  S
Cd649       O651   2.100       .  S
O650        C657   1.298       .  A
C652        O656   1.262       .  A
C652        C678   1.517       .  S
C658        O659   1.298       .  A
C660        C798   1.493       .  S
C660        C661   1.436       .  A
C660        C665   1.392       .  A
C661        C662   1.432       .  A
C661        H666   1.082       .  S
C662        C663   1.394       .  A
C663        C664   1.380       .  A
C663        H667   1.085       .  S
C664        C832   1.454       .  S
C664        C665   1.381       .  A
C665        H668   1.084       .  S
C669        C720   1.519       .  S
C669        C670   1.396       .  A
C669        C674   1.451       .  A
C670        C671   1.375       .  A
C670        H675   1.086       .  S
C671        C835   1.453       .  S
C671        C672   1.375       .  A
C672        C673   1.401       .  A
C672        H676   1.083       .  S
C673        C716   1.525       .  S
C673        C674   1.452       .  A
C674        H677   1.082       .  S
C678        C679   1.454       .  A
C678        C683   1.398       .  A
C679        C680   1.438       .  A
C679        H684   1.082       .  S
C680        C681   1.390       .  A
C681        C682   1.376       .  A
C681        H685   1.087       .  S
C682        C822   1.446   1_545  S
C682        C683   1.396       .  A
C683        H686   1.084       .  S
C687        C711   1.518       .  S
C687        C688   1.404       .  A
C687        C692   1.445       .  A
C688        C689   1.383       .  A
C688        H693   1.084       .  S
C689        C825   1.453       .  S
C689        C690   1.389       .  A
C690        C691   1.382       .  A
C690        H694   1.086       .  S
C691        C692   1.446       .  A
C692        H695   1.082       .  S
O696        C712   1.288       .  A
O696       Zn702   2.065       .  S
C697        O713   1.285       .  A
C697        O710   1.290       .  A
O698        C711   1.281       .  A
O698       Cd705   2.093       .  S
O699        C717   1.281       .  A
O699       Cd708   2.175       .  S
O700        C714   1.298       .  A
O700       Cd704   2.172       .  S
O701        C712   1.291       .  A
O701       Cd704   2.206       .  S
Zn702       O713   2.091       .  S
Zn702       O715   2.100       .  S
Zn702       O707   1.996       .  S
O703        C714   1.290       .  A
O703       Cd708   2.156       .  S
Cd704       O706   2.154       .  S
Cd704       O707   2.095       .  S
Cd705       O709   2.081       .  S
Cd705       O718   2.061       .  S
Cd705       O707   1.953       .  S
O706        C716   1.274       .  A
O707       Cd708   2.065       .  S
Cd708       O710   2.166       .  S
O709        C716   1.282       .  A
C711        O715   1.274       .  A
C717        O718   1.278       .  A
O719        C735   1.285       .  A
O719       Zn725   2.046   1_455  S
C720        O736   1.282       .  A
C720        O733   1.281       .  A
O721        C734   1.285       .  A
O721       Cd728   2.135       .  S
O722        C740   1.268       .  A
O722       Cd731   2.041       .  S
O723        C737   1.288       .  A
O723       Cd727   2.133   1_556  S
O724        C735   1.284       .  A
O724       Cd727   2.166       .  S
Zn725       O736   2.027   1_554  S
Zn725       O738   2.042       .  S
Zn725       O730   1.929       .  S
O726        C737   1.282       .  A
O726       Cd731   2.120   1_455  S
Cd727       O729   2.109       .  S
Cd727       O730   2.057   1_455  S
Cd728       O732   2.079       .  S
Cd728       O741   2.123   1_554  S
Cd728       O730   1.991       .  S
O729        C739   1.277       .  A
O730       Cd731   2.066   1_554  S
Cd731       O733   2.166       .  S
O732        C739   1.282   1_655  A
C734        O738   1.269       .  A
C735        C760   1.521       .  S
C740        O741   1.286       .  A
C742        C743   1.456       .  A
C742        C747   1.405       .  A
C743        C744   1.461       .  A
C743        H748   1.082       .  S
C744        C745   1.409       .  A
C745        C746   1.392       .  A
C745        H749   1.084       .  S
C746        C812   1.492       .  S
C746        C747   1.387       .  A
C747        H750   1.080       .  S
C751        C752   1.428       .  A
C751        C756   1.392       .  A
C752        C753   1.432       .  A
C752        H757   1.083       .  S
C753        C796   1.503       .  S
C753        C754   1.408       .  A
C754        C755   1.402       .  A
C754        H758   1.084       .  S
C755        C815   1.460   1_565  S
C755        C756   1.382       .  A
C756        H759   1.086   1_565  S
C760        C761   1.409       .  A
C760        C765   1.444       .  A
C761        C762   1.400       .  A
C761        H766   1.077       .  S
C762        C802   1.510       .  S
C762        C763   1.390       .  A
C763        C764   1.402       .  A
C763        H767   1.084       .  S
C764        C765   1.440       .  A
C765        H768   1.082       .  S
C769        C770   1.407       .  A
C769        C774   1.431       .  A
C770        C771   1.408       .  A
C770        H775   1.084   1_556  S
C771        C805   1.472       .  S
C771        C772   1.387       .  A
C772        C773   1.395       .  A
C772        H776   1.086       .  S
C773        C799   1.492       .  S
C773        C774   1.423       .  A
C774        H777   1.083       .  S
O778        C794   1.280       .  A
O778       Zn784   2.029       .  S
C779        O795   1.282       .  A
C779        O792   1.282       .  A
O780        C793   1.287       .  A
O780       Cd787   2.148       .  S
O781        C799   1.280       .  A
O781       Cd790   2.125       .  S
O782        C796   1.287       .  A
O782       Cd786   2.115       .  S
O783        C794   1.283       .  A
O783       Cd786   2.166       .  S
Zn784       O795   2.025       .  S
Zn784       O797   2.051       .  S
Zn784       O789   1.929       .  S
O785        C796   1.290       .  A
O785       Cd790   2.158       .  S
Cd786       O788   2.075       .  S
Cd786       O789   2.036       .  S
Cd787       O791   2.112       .  S
Cd787       O800   2.083       .  S
Cd787       O789   1.965       .  S
O788        C798   1.269       .  A
O789       Cd790   2.041       .  S
Cd790       O792   2.159       .  S
O791        C798   1.290       .  A
C793        O797   1.273       .  A
C799        O800   1.280       .  A
C801        C802   1.413       .  A
C801        C806   1.400       .  A
C801        H808   1.081       .  S
C802        C803   1.406       .  A
C803        C804   1.401   1_554  A
C803       Br810   1.915   1_554  S
C804        C805   1.409       .  A
C804        H809   1.081       .  S
C805        C806   1.408   1_556  A
C806       Br807   1.918       .  S
C811        C812   1.411       .  A
C811        C816   1.381       .  A
C811        H818   1.081       .  S
C812        C813   1.415       .  A
C813        C814   1.402       .  A
C813       Br820   1.921       .  S
C814        C815   1.403       .  A
C814        H819   1.083       .  S
C815        C816   1.401       .  A
C816       Br817   1.923       .  S
C821        C822   1.393       .  A
C821        C826   1.389       .  A
C821        H828   1.083   1_655  S
C822        C823   1.411       .  A
C823        C824   1.384       .  A
C823       Br830   1.923       .  S
C824        C825   1.394       .  A
C824        H829   1.084       .  S
C825        C826   1.410       .  A
C826       Br827   1.917       .  S
C831        C832   1.405   1_655  A
C831        C836   1.388       .  A
C831        H838   1.084       .  S
C832        C833   1.409       .  A
C833        C834   1.375   1_455  A
C833       Br840   1.927       .  S
C834        C835   1.400       .  A
C834        H839   1.084       .  S
C835        C836   1.403       .  A
C836       Br837   1.918       .  S
C841        C842   1.387       .  A
C841        C846   1.374       .  A
C841        H848   1.085       .  S
C842        C843   1.408       .  A
C843        C844   1.387       .  A
C843       Br850   1.921       .  S
C844        C845   1.399   1_556  A
C844        H849   1.082   1_556  S
C845        C846   1.416   1_554  A
C846       Br847   1.920   1_556  S
C851        C852   1.389       .  A
C851        C856   1.400       .  A
C851        H858   1.082       .  S
C852        C853   1.417       .  A
C853        C854   1.401   1_655  A
C853       Br860   1.905       .  S
C854        C855   1.402   1_455  A
C854        H859   1.083       .  S
C855        C856   1.442       .  A
C856       Br857   1.925       .  S
C861        C862   1.402       .  A
C861        C866   1.389       .  A
C861        H868   1.084       .  S
C862        C863   1.409       .  A
C863        C864   1.381       .  A
C863       Br870   1.927       .  S
C864        C865   1.401       .  A
C864        H869   1.084       .  S
C865        C866   1.409       .  A
C866       Br867   1.919   1_556  S
C871        C872   1.389       .  A
C871        C876   1.379       .  A
C871        H878   1.084       .  S
C872        C873   1.419       .  A
C873        C874   1.386       .  A
C873       Br880   1.921       .  S
C874        C875   1.389       .  A
C874        H879   1.084       .  S
C875        C876   1.413       .  A
C876       Br877   1.916       .  S
C881        C882   1.405       .  A
C881        C886   1.385       .  A
C881        H888   1.084       .  S
C882        C883   1.404       .  A
C883        C884   1.394       .  A
C883       Br890   1.908       .  S
C884        C885   1.401       .  A
C884        H889   1.083       .  S
C885        C886   1.403       .  A
C886       Br887   1.922       .  S
C891        C892   1.393   1_556  A
C891        C896   1.381       .  A
C891        H898   1.084   1_556  S
C892        C893   1.408   1_554  A
C893        C894   1.391       .  A
C893       Br900   1.923   1_565  S
C894        C895   1.406       .  A
C894        H899   1.084       .  S
C895        C896   1.424       .  A
C896       Br897   1.925       .  S
C901        C902   1.398       .  A
C901        C906   1.384       .  A
C901        H908   1.083       .  S
C902        C903   1.407       .  A
C903        C904   1.375   1_455  A
C903       Br910   1.927   1_455  S
C904        C905   1.403       .  A
C904        H909   1.083       .  S
C905        C906   1.413   1_655  A
C906       Br907   1.923       .  S
C911        C912   1.415       .  A
C911        C916   1.385       .  A
C911        H918   1.083       .  S
C912        C913   1.403   1_545  A
C913        C914   1.404       .  A
C913       Br920   1.915       .  S
C914        C915   1.417       .  A
C914        H919   1.083       .  S
C915        C916   1.401   1_565  A
C916       Br917   1.919       .  S
C921        C922   1.414       .  A
C921        C926   1.382       .  A
C921        H928   1.080       .  S
C922        C923   1.407       .  A
C923        C924   1.394       .  A
C923       Br930   1.919       .  S
C924        C925   1.406       .  A
C924        H929   1.084       .  S
C925        C926   1.398       .  A
C926       Br927   1.923       .  S
C931        C932   1.405       .  A
C931        C936   1.388       .  A
C931        H938   1.084       .  S
C932        C933   1.406       .  A
C933        C934   1.404       .  A
C933       Br940   1.917       .  S
C934        C935   1.414       .  A
C934        H939   1.084       .  S
C935        C936   1.410       .  A
C936       Br937   1.920       .  S
C941        C942   1.398       .  A
C941        C946   1.387       .  A
C941        H948   1.084       .  S
C942        C943   1.406       .  A
C943        C944   1.404   1_556  A
C943       Br950   1.916   1_556  S
C944        C945   1.412       .  A
C944        H949   1.083       .  S
C945        C946   1.418   1_554  A
C946       Br947   1.918       .  S
C951        C952   1.401       .  A
C951        C956   1.389       .  A
C951        H958   1.084       .  S
C952        C953   1.407       .  A
C953        C954   1.405       .  A
C953       Br960   1.917       .  S
C954        C955   1.412       .  A
C954        H959   1.084       .  S
C955        C956   1.413       .  A
C956       Br957   1.921       .  S
C961        C962   1.402       .  A
C961        C966   1.381       .  A
C961        H968   1.082       .  S
C962        C963   1.418       .  A
C963        C964   1.393       .  A
C963       Br970   1.924       .  S
C964        C965   1.396       .  A
C964        H969   1.084       .  S
C965        C966   1.404       .  A
C966       Br967   1.923       .  S
C971        C972   1.407       .  A
C971        C976   1.393       .  A
C971        H978   1.082       .  S
C972        C973   1.414       .  A
C973        C974   1.386       .  A
C973       Br980   1.915       .  S
C974        C975   1.394       .  A
C974        H979   1.084       .  S
C975        C976   1.408       .  A
C976       Br977   1.919       .  S
C981        C982   1.416       .  A
C981        C986   1.402       .  A
C981        H988   1.083       .  S
C982        C983   1.410       .  A
C983        C984   1.407       .  A
C983       Br990   1.916       .  S
C984        C985   1.413       .  A
C984        H989   1.078       .  S
C985        C986   1.408       .  A
C986       Br987   1.916       .  S
C991        C992   1.401       .  A
C991        C996   1.398       .  A
C991        H998   1.083       .  S
C992        C993   1.402       .  A
C993        C994   1.386       .  A
C993      Br1000   1.921       .  S
C994        C995   1.405       .  A
C994        H999   1.083       .  S
C995        C996   1.411       .  A
C996       Br997   1.916   1_565  S
C1001      C1002   1.408       .  A
C1001      C1006   1.401   1_554  A
C1001      H1008   1.083       .  S
C1002      C1003   1.434       .  A
C1003      C1004   1.409       .  A
C1003     Br1010   1.925       .  S
C1004      C1005   1.404       .  A
C1004      H1009   1.083       .  S
C1005      C1006   1.410   1_554  A
C1006     Br1007   1.903       .  S
C1011      C1012   1.413       .  A
C1011      C1016   1.397       .  A
C1011      H1018   1.082       .  S
C1012      C1013   1.405       .  A
C1013      C1014   1.400       .  A
C1013     Br1020   1.913       .  S
C1014      C1015   1.407       .  A
C1014      H1019   1.083       .  S
C1015      C1016   1.408       .  A
C1016     Br1017   1.921       .  S
C1021      C1022   1.406       .  A
C1021      C1026   1.388       .  A
C1021      H1028   1.084       .  S
C1022      C1023   1.412       .  A
C1023      C1024   1.406       .  A
C1023     Br1030   1.906       .  S
C1024      C1025   1.407       .  A
C1024      H1029   1.083       .  S
C1025      C1026   1.411       .  A
C1026     Br1027   1.917       .  S
C1031      C1032   1.406       .  A
C1031      C1036   1.392       .  A
C1031      H1038   1.084       .  S
C1032      C1033   1.403       .  A
C1033      C1034   1.405       .  A
C1033     Br1040   1.915   1_655  S
C1034      C1035   1.416       .  A
C1034      H1039   1.081   1_554  S
C1035      C1036   1.415       .  A
C1036     Br1037   1.917       .  S
