geometry optimzed in LAMMPS
_audit_creation_date              2020-11-30 
_audit_creation_method            'lammps2cif' 
_symmetry_space_group_name_H-M    'P1' 
_symmetry_Int_Tables_number       1 
_symmetry_cell_setting            triclinic 
loop_ 
_symmetry_equiv_pos_as_xyz 
  x,y,z 
_cell_length_a                    41.38336501 
_cell_length_b                    40.81447333482872 
_cell_length_c                    30.767086521365442 
_cell_angle_alpha                 90.28526333978331 
_cell_angle_beta                  87.19615048861239 
_cell_angle_gamma                 89.83280948935419 
loop_ 
_atom_site_label 
_atom_site_type_symbol 
_atom_site_fract_x 
_atom_site_fract_y 
_atom_site_fract_z 
_atom_site_charge 
C1          C  0.25397780  0.14259750  0.35361002    -0.01300
C2          C  0.07497253  0.31607161  0.35114844    -0.01300
C3          C  0.42680950  0.31418227  0.36031281    -0.01300
C4          C  0.25300082  0.48901701  0.34944012    -0.01300
C5          C  0.24612477  0.14117816  0.02704384    -0.01300
C6          C  0.07308859  0.31491960  0.03001463    -0.01300
C7          C  0.42638621  0.31356695  0.03799847    -0.01300
C8          C  0.24739799  0.48843225  0.02451832    -0.01300
O9          O  0.47378540  0.29024053  0.39502752    -0.70500
O10         O  0.02788641  0.29000941  0.49198985    -0.70800
O11         O  0.46383899  0.28904573  0.48255746    -0.70600
O12         O  0.03788914  0.29062827  0.40518607    -0.70600
O13         O  0.02997386  0.34227504  0.39501953    -0.70600
O14         O  0.47029972  0.34064787  0.49468903    -0.70600
O15         O  0.03575507  0.34166941  0.48195066    -0.70600
O16         O  0.46417627  0.34139095  0.40835298    -0.70700
V17         V  0.50081884  0.29066240  0.44368462     1.35200
V18         V  0.50008347  0.34100113  0.44492130     1.35200
C19         C  0.45653522  0.31528897  0.38877282     0.78700
C20         C  0.04403945  0.31537041  0.50027377     0.78700
C21         C  0.45488671  0.31440282  0.50354733     0.78600
C22         C  0.04613343  0.31647104  0.38517669     0.78600
O23         O  0.27461780  0.09759312  0.48315683    -0.70500
O24         O  0.27720757  0.03137459  0.39507356    -0.70800
O25         O  0.27759771  0.09848885  0.39600642    -0.70600
O26         O  0.27480865  0.03186317  0.48231277    -0.70600
O27         O  0.22299719  0.03089865  0.48020680    -0.70600
O28         O  0.22555619  0.09851730  0.39484232    -0.70600
O29         O  0.22534202  0.03253170  0.39326856    -0.70600
O30         O  0.22262622  0.09805144  0.48188130    -0.70700
V31         V  0.27510643  0.06482422  0.43877305     1.35200
V32         V  0.22507602  0.06499820  0.43787286     1.35200
C33         C  0.24807561  0.11052188  0.49618518     0.78700
C34         C  0.25166833  0.01906836  0.38071271     0.78700
C35         C  0.25210666  0.11160248  0.38262481     0.78600
C36         C  0.24856438  0.01827406  0.49415049     0.78600
C37         C  0.36739420  0.38366391  0.07620080    -0.27000
C38         C  0.36295797  0.40108939  0.03753561     0.06600
C39         C  0.38361221  0.39255267  0.50130527     0.26300
C40         C  0.40470456  0.36570285  0.50217396    -0.11500
C41         C  0.40774594  0.34708008  0.04002091    -0.25400
C42         C  0.38829054  0.35665400  0.07728753     0.37100
C43         C  0.33479547  0.42475318  0.03443859     0.06600
F44         F  0.38348221  0.40973111  0.46400002    -0.19200
H45         H  0.41748480  0.35909594  0.47198488     0.16500
F46         F  0.38743456  0.33877180  0.11436375    -0.22900
H47         H  0.35389326  0.39013016  0.10595794     0.18300
C48         C  0.30569204  0.42008436  0.05949896     0.26300
C49         C  0.27966570  0.44164948  0.05647265    -0.11400
C50         C  0.27943654  0.46722247  0.02546791    -0.25500
C51         C  0.30766531  0.46981620  0.99747408     0.37200
C52         C  0.33523209  0.45063714  0.00417654    -0.27100
F53         F  0.30105131  0.39355225  0.08542023    -0.19200
H54         H  0.25826712  0.43687046  0.07706028     0.16500
F55         F  0.30885232  0.48815111  0.96106050    -0.22900
H56         H  0.35661792  0.45610452  0.98421247     0.18300
C57         C  0.14574717  0.36387424  0.47833214    -0.27000
C58         C  0.14088639  0.39577046  0.99870374     0.06600
C59         C  0.11095805  0.40141334  0.02191841     0.26300
C60         C  0.08785618  0.37650231  0.02627991    -0.11500
C61         C  0.09579145  0.34379918  0.01506780    -0.25400
C62         C  0.12441944  0.33816546  0.48752936     0.37100
C63         C  0.16779891  0.42072305  0.99647108     0.06600
F64         F  0.10427642  0.42993470  0.04328692    -0.19200
H65         H  0.06495563  0.38208069  0.04327597     0.16500
F66         F  0.13081615  0.30927638  0.46689040    -0.22900
H67         H  0.16560163  0.35910342  0.45510107     0.18300
C68         C  0.20057944  0.41108418  0.99076082     0.26300
C69         C  0.22535679  0.43379277  0.99397447    -0.11400
C70         C  0.21928688  0.46600622  0.00943035    -0.25500
C71         C  0.18647032  0.47643706  0.01101733     0.37200
C72         C  0.16154365  0.45441300  0.00284829    -0.27100
F73         F  0.20967893  0.37933896  0.98527807    -0.19200
H74         H  0.24958149  0.42466818  0.98699145     0.16500
F75         F  0.17777364  0.50683811  0.02546497    -0.22900
H76         H  0.13721475  0.46402251  0.00354136     0.18300
C77         C  0.15722691  0.17096489  0.02110134    -0.27000
C78         C  0.16194227  0.20390953  0.01053094     0.06600
C79         C  0.19258025  0.21403683  0.49615494     0.26300
C80         C  0.21909211  0.19314879  0.49750336    -0.11500
C81         C  0.21586235  0.16159470  0.01469813    -0.25400
C82         C  0.18372729  0.14961030  0.02196845     0.37100
C83         C  0.13627026  0.22843292  0.01916629     0.06600
F84         F  0.19715660  0.24535269  0.48250294    -0.19200
H85         H  0.24225194  0.20319087  0.48702192     0.16500
F86         F  0.17809249  0.11868698  0.03649541    -0.22900
H87         H  0.13337975  0.16230145  0.03150270     0.18300
C88         C  0.10800136  0.22885870  0.99610768     0.26300
C89         C  0.08748656  0.25608180  0.99883130    -0.11400
C90         C  0.09332857  0.28266095  0.02731153    -0.25500
C91         C  0.12091957  0.28025434  0.05287367     0.37200
C92         C  0.14201466  0.25380224  0.04832979    -0.27100
F93         F  0.10079106  0.20373122  0.96936926    -0.19200
H94         H  0.06841189  0.25595123  0.97642201     0.16500
F95         F  0.12937715  0.30497187  0.07960094    -0.22900
H96         H  0.16375571  0.25369136  0.06663975     0.18300
C97         C  0.30485631  0.21217218  0.05192099    -0.27000
C98         C  0.32992067  0.20892456  0.02002477     0.06600
C99         C  0.32925869  0.18181500  0.49049519     0.26300
C100        C  0.30249005  0.16070980  0.49122883    -0.11500
C101        C  0.27687962  0.16389054  0.02406551    -0.25400
C102        C  0.27901313  0.19029384  0.05419938     0.37100
C103        C  0.35533869  0.23471271  0.01649115     0.06600
F104        F  0.35366550  0.17683267  0.46029820    -0.19200
H105        H  0.30193822  0.14351951  0.46471048     0.16500
F106        F  0.25493791  0.19650667  0.08461596    -0.22900
H107        H  0.30500126  0.23227488  0.07505358     0.18300
C108        C  0.34622107  0.26774799  0.01513195     0.26300
C109        C  0.36899878  0.29253632  0.01929737    -0.11400
C110        C  0.40207546  0.28561159  0.02567864    -0.25500
C111        C  0.41142625  0.25195045  0.02234631     0.37200
C112        C  0.38828342  0.22707719  0.01820700    -0.27100
F113        F  0.31476067  0.27621715  0.01101252    -0.19200
H114        H  0.35960518  0.31718482  0.01870459     0.16500
F115        F  0.44238171  0.24247446  0.02816981    -0.22900
H116        H  0.39596155  0.20170919  0.01894833     0.18300
C117        C  0.28004952  0.49842170  0.22660735    -0.27000
C118        C  0.25246926  0.01325360  0.21095083     0.06600
C119        C  0.22808940  0.02392097  0.24095213     0.26300
C120        C  0.23161978  0.02035268  0.28570363    -0.11500
C121        C  0.25756381  0.00211889  0.30193518    -0.25400
C122        C  0.28228016  0.49168902  0.27090029     0.37100
C123        C  0.24745317  0.01274801  0.16343141     0.06600
F124        F  0.19962320  0.03520012  0.22686327    -0.19200
H125        H  0.21178347  0.02827451  0.30755981     0.16500
F126        F  0.30658374  0.47129175  0.28085198    -0.22900
H127        H  0.29856695  0.48880235  0.20385512     0.18300
C128        C  0.27084399  0.02497541  0.13333136     0.26300
C129        C  0.26751241  0.02067311  0.08860819    -0.11400
C130        C  0.24257893  0.00106516  0.07236431    -0.25500
C131        C  0.21914705  0.48863891  0.10355915     0.37200
C132        C  0.22114931  0.49561457  0.14789062    -0.27100
F133        F  0.29818585  0.03895068  0.14725450    -0.19200
H134        H  0.28671848  0.02968268  0.06667418     0.16500
F135        F  0.19658942  0.46630095  0.09348695    -0.22900
H136        H  0.20360496  0.48464667  0.17072529     0.18300
C137        C  0.46702741  0.33170293  0.14563968    -0.27000
C138        C  0.45612405  0.30584276  0.17228889     0.06600
C139        C  0.44007415  0.27965137  0.15364630     0.26300
C140        C  0.43180192  0.28105392  0.11029983    -0.11500
C141        C  0.44097796  0.30781621  0.08311709    -0.25400
C142        C  0.46059056  0.33226460  0.10140278     0.37100
C143        C  0.45330447  0.31033547  0.21997606     0.06600
F144        F  0.42869974  0.25455768  0.17879517    -0.19200
H145        H  0.41571675  0.26209211  0.10042035     0.16500
F146        F  0.47012088  0.35898278  0.07814530    -0.22900
H147        H  0.47898074  0.35250525  0.15970853     0.18300
C148        C  0.46731704  0.28883355  0.24915391     0.26300
C149        C  0.46071501  0.29238531  0.29415348    -0.11400
C150        C  0.43814871  0.31589788  0.31114447    -0.25500
C151        C  0.42238259  0.33547870  0.28008932     0.37200
C152        C  0.43139034  0.33384721  0.23607664    -0.27100
F153        F  0.48684498  0.26407770  0.23418478    -0.19200
H154        H  0.47174057  0.27514427  0.31554311     0.16500
F155        F  0.39492937  0.35271227  0.28982947    -0.22900
H156        H  0.41853427  0.34894657  0.21367178     0.18300
C157        C  0.35383918  0.36622222  0.40557839    -0.27000
C158        C  0.35912057  0.39597629  0.38337412     0.06600
C159        C  0.39030206  0.40099658  0.36349190     0.26300
C160        C  0.41351762  0.37591625  0.36269158    -0.11500
C161        C  0.40484580  0.34376078  0.37510464    -0.25400
C162        C  0.37584216  0.34033437  0.40106257     0.37100
C163        C  0.33209329  0.42064484  0.38081363     0.06600
F164        F  0.39799900  0.42872438  0.34130534    -0.19200
H165        H  0.43677086  0.38038103  0.34612552     0.16500
F166        F  0.36859138  0.31239902  0.42305775    -0.22900
H167        H  0.33261050  0.36265190  0.42683768     0.18300
C168        C  0.29945391  0.41064926  0.38218717     0.26300
C169        C  0.27466265  0.43317448  0.37701200    -0.11400
C170        C  0.28091183  0.46583593  0.36379004    -0.25500
C171        C  0.31366963  0.47615184  0.36450327     0.37200
C172        C  0.33830338  0.45425603  0.37472604    -0.27100
F173        F  0.29082395  0.37870132  0.38579168    -0.19200
H174        H  0.25048006  0.42357961  0.38148153     0.16500
F175        F  0.32277072  0.50660483  0.35137102    -0.22900
H176        H  0.36243667  0.46395778  0.37639430     0.18300
C177        C  0.06719275  0.28553793  0.23210973    -0.27000
C178        C  0.04563934  0.30861956  0.21706378     0.06600
C179        C  0.03086227  0.33101703  0.24645461     0.26300
C180        C  0.03760548  0.33003025  0.29051504    -0.11500
C181        C  0.06163438  0.30879964  0.30573423    -0.25400
C182        C  0.07654051  0.28649705  0.27489143     0.37100
C183        C  0.04604506  0.31405108  0.16985364     0.06600
F184        F  0.01150214  0.35513459  0.23211043    -0.19200
H185        H  0.02647810  0.34841355  0.31187353     0.16500
F186        F  0.10331614  0.26876902  0.28276562    -0.22900
H187        H  0.08006148  0.26933037  0.20916375     0.18300
C188        C  0.06597594  0.33871629  0.15265691     0.26300
C189        C  0.07387064  0.33968052  0.10831266    -0.11400
C190        C  0.06066327  0.31722868  0.07863462    -0.25500
C191        C  0.03967206  0.29283504  0.09672976     0.37200
C192        C  0.03318554  0.29094124  0.14179012    -0.27100
F193        F  0.08103980  0.35964110  0.17951191    -0.19200
H194        H  0.09306992  0.35632124  0.09912944     0.16500
F195        F  0.02782699  0.26876048  0.07157815    -0.22900
H196        H  0.01901607  0.27070336  0.15493350     0.18300
C197        C  0.11986718  0.39492539  0.38504040    -0.27000
C198        C  0.13578176  0.40482361  0.34598969     0.06600
C199        C  0.12696746  0.38921269  0.30738185     0.26300
C200        C  0.10651036  0.36196188  0.30886095    -0.11500
C201        C  0.09204277  0.35033155  0.34858129    -0.25400
C202        C  0.09817695  0.36865594  0.38634196     0.37100
C203        C  0.16372350  0.42838225  0.34621473     0.06600
F204        F  0.13861112  0.39969330  0.26786546    -0.19200
H205        H  0.10319869  0.34949166  0.27836043     0.16500
F206        F  0.08459794  0.36027859  0.42533979    -0.22900
H207        H  0.12529883  0.40631910  0.41543576     0.18300
C208        C  0.16582052  0.45361336  0.37747515     0.26300
C209        C  0.19422407  0.47212286  0.38031570    -0.11400
C210        C  0.22057168  0.46866898  0.34934446    -0.25500
C211        C  0.21768332  0.44354456  0.31758681     0.37200
C212        C  0.19047638  0.42351082  0.31707774    -0.27900
F213        F  0.14045941  0.46078613  0.40554720    -0.19200
H214        H  0.19503944  0.48804183  0.40814010     0.16500
F215        F  0.24253382  0.43632152  0.28871746    -0.22900
H216        H  0.19118822  0.40320205  0.29435865     0.18300
C217        C  0.27141854  0.10783191  0.13749724    -0.27000
C218        C  0.24665510  0.11904574  0.16661668     0.06600
C219        C  0.22001707  0.13495424  0.14998552     0.26300
C220        C  0.21882296  0.14056018  0.10548555    -0.11500
C221        C  0.24351073  0.12932030  0.07521902    -0.25400
C222        C  0.26952901  0.11183936  0.09246827     0.37100
C223        C  0.25123841  0.11950621  0.21414551     0.06600
F224        F  0.19688549  0.14873082  0.17714391    -0.19200
H225        H  0.19979805  0.15681000  0.09655447     0.16500
F226        F  0.29499704  0.10172894  0.06630327    -0.22900
H227        H  0.29316192  0.09747733  0.14994012     0.18300
C228        C  0.22712340  0.10888491  0.24443115     0.26300
C229        C  0.23067519  0.11325370  0.28911308    -0.11400
C230        C  0.25671985  0.13139202  0.30498819    -0.25500
C231        C  0.28038261  0.14294985  0.27333865     0.37200
C232        C  0.27823755  0.13548966  0.22931529    -0.27100
F233        F  0.19899158  0.09654681  0.23077056    -0.19200
H234        H  0.21122497  0.10518828  0.31126997     0.16500
F235        F  0.30279702  0.16577690  0.28218231    -0.22900
H236        H  0.29614987  0.14559053  0.20630024     0.18300
C237        C  0.11392606  0.23046753  0.36943431    -0.27000
C238        C  0.14672731  0.23820314  0.37136619     0.06600
C239        C  0.15563364  0.27128491  0.37373303     0.26300
C240        C  0.13257152  0.29611416  0.37037590    -0.11500
C241        C  0.09960661  0.28892078  0.36420403    -0.25400
C242        C  0.09062321  0.25518283  0.36588144     0.37100
C243        C  0.17193643  0.21223702  0.36594836     0.06600
F244        F  0.18708951  0.27970326  0.37761140    -0.19200
H245        H  0.14156082  0.32089516  0.37055956     0.16500
F246        F  0.06024178  0.24553590  0.35715702    -0.22900
H247        H  0.10654607  0.20509614  0.36715748     0.18300
C248        C  0.17230487  0.18467313  0.39288684     0.26300
C249        C  0.19808284  0.16235699  0.38978410    -0.11400
C250        C  0.22325670  0.16524180  0.35710059    -0.25500
C251        C  0.22140928  0.19255329  0.32862664     0.37200
C252        C  0.19642224  0.21548527  0.33337527    -0.27100
F253        F  0.14830838  0.17973787  0.42343797    -0.19200
H254        H  0.19836973  0.14433878  0.41514546     0.16500
F255        F  0.24514839  0.19881769  0.29794438    -0.22900
H256        H  0.19645979  0.23629423  0.31160457     0.18300
C257        C  0.30798357  0.21391760  0.39082530    -0.27000
C258        C  0.33828120  0.20315340  0.37486272     0.06600
C259        C  0.34254456  0.17038147  0.36232216     0.26300
C260        C  0.31555116  0.14992310  0.36031085    -0.11500
C261        C  0.28378018  0.16256099  0.36804735    -0.25400
C262        C  0.28111155  0.19383698  0.38863174     0.37100
C263        C  0.36388827  0.22759669  0.36799483     0.06600
F264        F  0.37217026  0.15903273  0.34853716    -0.19200
H265        H  0.31923775  0.12549428  0.34707504     0.16500
F266        F  0.25288762  0.20594085  0.40622169    -0.22900
H267        H  0.30491401  0.23863541  0.40345409     0.18300
C268        C  0.35967848  0.25245829  0.33781379     0.26300
C269        C  0.38052176  0.27903296  0.33591400    -0.11400
C270        C  0.40651363  0.28202084  0.36397853    -0.25500
C271        C  0.41031751  0.25621421  0.39440404     0.37200
C272        C  0.38966768  0.22919839  0.39536322    -0.27100
F273        F  0.33446266  0.25164637  0.31117761    -0.19200
H274        H  0.37525535  0.29812532  0.31321212     0.16500
F275        F  0.43123732  0.25742688  0.42646118    -0.22900
H276        H  0.39280279  0.21045310  0.41947579     0.18300
C277        C  0.25376553  0.14311031  0.85360729    -0.01300
C278        C  0.07483717  0.31666310  0.85117183    -0.01300
C279        C  0.42679931  0.31494925  0.86046900    -0.01300
C280        C  0.25289671  0.48946440  0.84964940    -0.01300
C281        C  0.24627327  0.14075090  0.52692662    -0.01300
C282        C  0.07314013  0.31447209  0.52986946    -0.01300
C283        C  0.42640331  0.31314150  0.53795877    -0.01300
C284        C  0.24718315  0.48798767  0.52451812    -0.01300
O285        O  0.47387904  0.29092795  0.89491246    -0.70500
O286        O  0.02773155  0.29052125  0.99218298    -0.70800
O287        O  0.46369301  0.28955415  0.98238603    -0.70600
O288        O  0.03793481  0.29121218  0.90540456    -0.70600
O289        O  0.02978197  0.34279135  0.89500637    -0.70600
O290        O  0.47044454  0.34104213  0.99502321    -0.70600
O291        O  0.03582682  0.34211776  0.98195449    -0.70600
O292        O  0.46407907  0.34196751  0.90873838    -0.70700
V293        V  0.50078284  0.29120664  0.94372424     1.35200
V294        V  0.50006974  0.34150976  0.94509879     1.35200
C295        C  0.45653555  0.31595322  0.88889640     0.78700
C296        C  0.04398596  0.31583524  0.00040870     0.78700
C297        C  0.45488001  0.31483750  0.00362161     0.78600
C298        C  0.04602059  0.31702227  0.88521660     0.78600
O299        O  0.27456151  0.09825528  0.98297657    -0.70500
O300        O  0.27714153  0.03178185  0.89527353    -0.70800
O301        O  0.27747707  0.09891180  0.89579828    -0.70600
O302        O  0.27484247  0.03253034  0.98250557    -0.70600
O303        O  0.22305403  0.03116311  0.98006015    -0.70600
O304        O  0.22541188  0.09916702  0.89522190    -0.70600
O305        O  0.22529310  0.03318258  0.89312949    -0.70600
O306        O  0.22254482  0.09830810  0.98224886    -0.70700
V307        V  0.27505573  0.06536432  0.93877654     1.35200
V308        V  0.22502130  0.06545712  0.93798229     1.35200
C309        C  0.24798995  0.11097544  0.99628050     0.78700
C310        C  0.25159831  0.01959787  0.88075460     0.78700
C311        C  0.25195004  0.11214686  0.88271250     0.78600
C312        C  0.24866431  0.01874294  0.99418211     0.78600
C313        C  0.36747506  0.38333559  0.57626121    -0.27000
C314        C  0.36276904  0.40059362  0.53754756     0.06600
C315        C  0.38408984  0.39328998  0.00151570     0.26300
C316        C  0.40510047  0.36639183  0.00240144    -0.11500
C317        C  0.40765121  0.34660648  0.53992042    -0.25400
C318        C  0.38837302  0.35632238  0.57729858     0.37100
C319        C  0.33466635  0.42439254  0.53468774     0.06600
F320        F  0.38429777  0.41072224  0.96438191    -0.19200
H321        H  0.41803806  0.35993708  0.97227922     0.16500
F322        F  0.38774329  0.33864316  0.61453661    -0.22900
H323        H  0.35422250  0.38995899  0.60614490     0.18300
C324        C  0.30573308  0.42006533  0.56027040     0.26300
C325        C  0.27970781  0.44165615  0.55722857    -0.11400
C326        C  0.27932670  0.46695773  0.52584684    -0.25500
C327        C  0.30739968  0.46925870  0.49750999     0.37200
C328        C  0.33496975  0.45007243  0.50413290    -0.27100
F329        F  0.30121579  0.39381239  0.58671790    -0.19200
H330        H  0.25840581  0.43706076  0.57808546     0.16500
F331        F  0.30835521  0.48720250  0.46075967    -0.22900
H332        H  0.35623516  0.45533520  0.48381926     0.18300
C333        C  0.14523520  0.36494193  0.97854183    -0.27000
C334        C  0.14125039  0.39490428  0.49786804     0.06600
C335        C  0.11117598  0.40077055  0.52060251     0.26300
C336        C  0.08804849  0.37591980  0.52510768    -0.11500
C337        C  0.09603630  0.34310811  0.51463557    -0.25400
C338        C  0.12396133  0.33915438  0.98749891     0.37100
C339        C  0.16813382  0.41987089  0.49557365     0.06600
F340        F  0.10435525  0.42947796  0.54143768    -0.19200
H341        H  0.06504393  0.38168282  0.54171477     0.16500
F342        F  0.13016420  0.31047896  0.96623371    -0.22900
H343        H  0.16491022  0.36040925  0.95495050     0.18300
C344        C  0.20096033  0.41027619  0.49058380     0.26300
C345        C  0.22563702  0.43306706  0.49411855    -0.11400
C346        C  0.21932612  0.46537165  0.50910618    -0.25500
C347        C  0.18649158  0.47570384  0.50990934     0.37200
C348        C  0.16175287  0.45357950  0.50137183    -0.27100
F349        F  0.21016240  0.37852756  0.48550603    -0.19200
H350        H  0.24992915  0.42394132  0.48775120     0.16500
F351        F  0.17749416  0.50610082  0.52402288    -0.22900
H352        H  0.13742479  0.46313805  0.50139959     0.18300
C353        C  0.15727367  0.17039290  0.52125432    -0.27000
C354        C  0.16188400  0.20338534  0.51086910     0.06600
C355        C  0.19265227  0.21441774  0.99567704     0.26300
C356        C  0.21910419  0.19348591  0.99722040    -0.11500
C357        C  0.21594808  0.16117252  0.51474842    -0.25400
C358        C  0.18384091  0.14910694  0.52202698     0.37100
C359        C  0.13609297  0.22779981  0.51950788     0.06600
F360        F  0.19730494  0.24565147  0.98173649    -0.19200
H361        H  0.24229898  0.20342812  0.98669655     0.16500
F362        F  0.17829787  0.11814209  0.53645369    -0.22900
H363        H  0.13344705  0.16162803  0.53157342     0.18300
C364        C  0.10808503  0.22845370  0.49590561     0.26300
C365        C  0.08760129  0.25570479  0.49856029    -0.11400
C366        C  0.09317940  0.28207559  0.52748901    -0.25500
C367        C  0.12046459  0.27943018  0.55357384     0.37200
C368        C  0.14154926  0.25294780  0.54912792    -0.27100
F369        F  0.10112922  0.20356188  0.46866299    -0.19200
H370        H  0.06888479  0.25585767  0.47564366     0.16500
F371        F  0.12866713  0.30396173  0.58075377    -0.22900
H372        H  0.16308799  0.25267272  0.56783038     0.18300
C373        C  0.30522779  0.21159288  0.55156054    -0.27000
C374        C  0.33025126  0.20826528  0.51963044     0.06600
C375        C  0.32903610  0.18247170  0.99088985     0.26300
C376        C  0.30234787  0.16128431  0.99156934    -0.11500
C377        C  0.27704422  0.16343559  0.52374519    -0.25400
C378        C  0.27930541  0.18982450  0.55386903     0.37100
C379        C  0.35566888  0.23404991  0.51605487     0.06600
F380        F  0.35347334  0.17757360  0.96071432    -0.19200
H381        H  0.30187322  0.14415802  0.96497465     0.16500
F382        F  0.25529240  0.19611602  0.58434420    -0.22900
H383        H  0.30545804  0.23169718  0.57468293     0.18300
C384        C  0.34650127  0.26706134  0.51445567     0.26300
C385        C  0.36917296  0.29191537  0.51888104    -0.11400
C386        C  0.40220406  0.28508325  0.52566403    -0.25500
C387        C  0.41164482  0.25143316  0.52259628     0.37200
C388        C  0.38859552  0.22648757  0.51825009    -0.27100
F389        F  0.31506440  0.27543804  0.50992163    -0.19200
H390        H  0.35972764  0.31653955  0.51816033     0.16500
F391        F  0.44258254  0.24206562  0.52877616    -0.22900
H392        H  0.39630705  0.20113712  0.51920318     0.18300
C393        C  0.27898853  0.49836183  0.72645751    -0.27000
C394        C  0.25120434  0.01289931  0.71095481     0.06600
C395        C  0.22688257  0.02347268  0.74111472     0.26300
C396        C  0.23075428  0.02021553  0.78585900    -0.11500
C397        C  0.25700614  0.00235704  0.80198312    -0.25400
C398        C  0.28158466  0.49194252  0.77076366     0.37100
C399        C  0.24620843  0.01252403  0.66340719     0.06600
F400        F  0.19824555  0.03450725  0.72725667    -0.19200
H401        H  0.21099212  0.02809512  0.80786663     0.16500
F402        F  0.30617028  0.47187767  0.78062993    -0.22900
H403        H  0.29747772  0.48880675  0.70361368     0.18300
C404        C  0.26970288  0.02481504  0.63350157     0.26300
C405        C  0.26667502  0.02043322  0.58874994    -0.11400
C406        C  0.24192314  0.00072827  0.57226555    -0.25500
C407        C  0.21822144  0.48843569  0.60320230     0.37200
C408        C  0.21996534  0.49542837  0.64759796    -0.27100
F409        F  0.29691755  0.03887712  0.64767952    -0.19200
H410        H  0.28600367  0.02944358  0.56701313     0.16500
F411        F  0.19558886  0.46626533  0.59283435    -0.22900
H412        H  0.20228062  0.48449853  0.67026754     0.18300
C413        C  0.46695364  0.33171441  0.64552674    -0.27000
C414        C  0.45595113  0.30601156  0.67238159     0.06600
C415        C  0.43986382  0.27976388  0.65392115     0.26300
C416        C  0.43170664  0.28093519  0.61050942    -0.11500
C417        C  0.44100321  0.30752968  0.58310564    -0.25400
C418        C  0.46063356  0.33203705  0.60123954     0.37100
C419        C  0.45316883  0.31067451  0.72005518     0.06600
F420        F  0.42834469  0.25485346  0.67928356    -0.19200
H421        H  0.41558146  0.26197063  0.60073313     0.16500
F422        F  0.47028418  0.35860267  0.57775169    -0.22900
H423        H  0.47893124  0.35256269  0.65944341     0.18300
C424        C  0.46721908  0.28927131  0.74932397     0.26300
C425        C  0.46058828  0.29288701  0.79431597    -0.11400
C426        C  0.43804216  0.31644421  0.81123725    -0.25500
C427        C  0.42226836  0.33595112  0.78010076     0.37200
C428        C  0.43124644  0.33420641  0.73607557    -0.27100
F429        F  0.48681675  0.26454354  0.73444360    -0.19200
H430        H  0.47162750  0.27569429  0.81575235     0.16500
F431        F  0.39488829  0.35330989  0.78981627    -0.22900
H432        H  0.41838506  0.34925244  0.71361617     0.18300
C433        C  0.35441200  0.36748702  0.90627398    -0.27000
C434        C  0.35954205  0.39705394  0.88358214     0.06600
C435        C  0.39058336  0.40191227  0.86320158     0.26300
C436        C  0.41375779  0.37678478  0.86234346    -0.11500
C437        C  0.40508292  0.34472667  0.87520140    -0.25400
C438        C  0.37634821  0.34155449  0.90175824     0.37100
C439        C  0.33245221  0.42162866  0.88094102     0.06600
F440        F  0.39812777  0.42948111  0.84057671    -0.19200
H441        H  0.43691016  0.38109737  0.84542773     0.16500
F442        F  0.36931578  0.31380976  0.92429373    -0.22900
H443        H  0.33335702  0.36410979  0.92791848     0.18300
C444        C  0.29984425  0.41152988  0.88281908     0.26300
C445        C  0.27495206  0.43392481  0.87766689    -0.11400
C446        C  0.28101413  0.46649300  0.86389321    -0.25500
C447        C  0.31374620  0.47694821  0.86413285     0.37200
C448        C  0.33853542  0.45520936  0.87430696    -0.27100
F449        F  0.29132445  0.37958008  0.88691148    -0.19200
H450        H  0.25082130  0.42428696  0.88262907     0.16500
F451        F  0.32261999  0.50738950  0.85066912    -0.22900
H452        H  0.36266901  0.46499102  0.87553395     0.18300
C453        C  0.06736543  0.28652759  0.73190452    -0.27000
C454        C  0.04563004  0.30945500  0.71692909     0.06600
C455        C  0.03073325  0.33173506  0.74639232     0.26300
C456        C  0.03748488  0.33072110  0.79047155    -0.11500
C457        C  0.06156616  0.30953784  0.80566086    -0.25400
C458        C  0.07666318  0.28744007  0.77470256     0.37100
C459        C  0.04580863  0.31471868  0.66967346     0.06600
F460        F  0.01117442  0.35571375  0.73213304    -0.19200
H461        H  0.02624329  0.34899129  0.81190132     0.16500
F462        F  0.10356991  0.26989374  0.78251498    -0.22900
H463        H  0.08035041  0.27044414  0.70891303     0.18300
C464        C  0.06550393  0.33945783  0.65215125     0.26300
C465        C  0.07354558  0.34004759  0.60781412    -0.11400
C466        C  0.06061814  0.31718400  0.57843097    -0.25500
C467        C  0.03969916  0.29284769  0.59680217     0.37200
C468        C  0.03316550  0.29127643  0.64187945    -0.27100
F469        F  0.08026994  0.36081503  0.67873336    -0.19200
H470        H  0.09265653  0.35674411  0.59847843     0.16500
F471        F  0.02803183  0.26850673  0.57192333    -0.22900
H472        H  0.01915234  0.27101625  0.65526869     0.18300
C473        C  0.11956285  0.39550191  0.88551886    -0.27000
C474        C  0.13577542  0.40524975  0.84662833     0.06600
C475        C  0.12719061  0.38961113  0.80793694     0.26300
C476        C  0.10668678  0.36242048  0.80923618    -0.11500
C477        C  0.09195378  0.35087997  0.84882339    -0.25400
C478        C  0.09786365  0.36925287  0.88663988     0.37100
C479        C  0.16380800  0.42864022  0.84709012     0.06600
F480        F  0.13913181  0.39998960  0.76851533    -0.19200
H481        H  0.10354993  0.34992239  0.77871381     0.16500
F482        F  0.08402156  0.36101436  0.92553378    -0.22900
H483        H  0.12476565  0.40698438  0.91594420     0.18300
C484        C  0.16584712  0.45400193  0.87818499     0.26300
C485        C  0.19423103  0.47255666  0.88091291    -0.11400
C486        C  0.22060686  0.46892081  0.85003098    -0.25500
C487        C  0.21783836  0.44354098  0.81861934     0.37200
C488        C  0.19066631  0.42350129  0.81823964    -0.27900
F489        F  0.14044990  0.46129472  0.90614215    -0.19200
H490        H  0.19498743  0.48871561  0.90850370     0.16500
F491        F  0.24275151  0.43614977  0.78992383    -0.22900
H492        H  0.19145002  0.40302606  0.79578279     0.18300
C493        C  0.27203043  0.10790401  0.63745390    -0.27000
C494        C  0.24731051  0.11914988  0.66661478     0.06600
C495        C  0.22054944  0.13485719  0.65000700     0.26300
C496        C  0.21917008  0.14022557  0.60547769    -0.11500
C497        C  0.24381096  0.12896488  0.57515530    -0.25400
C498        C  0.26994675  0.11164526  0.59239577     0.37100
C499        C  0.25188298  0.11965676  0.71415444     0.06600
F500        F  0.19743108  0.14863314  0.67718948    -0.19200
H501        H  0.20002572  0.15632644  0.59654708     0.16500
F502        F  0.29533134  0.10143561  0.56615418    -0.22900
H503        H  0.29384398  0.09765323  0.64985268     0.18300
C504        C  0.22783907  0.10874397  0.74433138     0.26300
C505        C  0.23115435  0.11327645  0.78903027    -0.11400
C506        C  0.25691411  0.13176180  0.80504265    -0.25500
C507        C  0.28061793  0.14344864  0.77352567     0.37200
C508        C  0.27866850  0.13594600  0.72945554    -0.27100
F509        F  0.19995106  0.09596945  0.73050319    -0.19200
H510        H  0.21171328  0.10503062  0.81107644     0.16500
F511        F  0.30286721  0.16640125  0.78253867    -0.22900
H512        H  0.29653964  0.14619837  0.70650983     0.18300
C513        C  0.11356097  0.23089645  0.86882514    -0.27000
C514        C  0.14639020  0.23852646  0.87066612     0.06600
C515        C  0.15541260  0.27156840  0.87317133     0.26300
C516        C  0.13240346  0.29648711  0.87015365    -0.11500
C517        C  0.09940512  0.28941317  0.86406095    -0.25400
C518        C  0.09032666  0.25569785  0.86548850     0.37100
C519        C  0.17149841  0.21248168  0.86519763     0.06600
F520        F  0.18691806  0.27986126  0.87687989    -0.19200
H521        H  0.14144043  0.32125123  0.87050764     0.16500
F522        F  0.05989331  0.24619531  0.85680107    -0.22900
H523        H  0.10610353  0.20555340  0.86646126     0.18300
C524        C  0.17190619  0.18505973  0.89236560     0.26300
C525        C  0.19768872  0.16274533  0.88938262    -0.11400
C526        C  0.22285480  0.16551279  0.85664828    -0.25500
C527        C  0.22093749  0.19267683  0.82792810     0.37200
C528        C  0.19591749  0.21558561  0.83251401    -0.27100
F529        F  0.14799832  0.18035338  0.92312577    -0.19200
H530        H  0.19804400  0.14492317  0.91498036     0.16500
F531        F  0.24469257  0.19891103  0.79725838    -0.22900
H532        H  0.19592722  0.23631754  0.81061406     0.18300
C533        C  0.30689498  0.21505882  0.89122427    -0.27000
C534        C  0.33738649  0.20451441  0.87573103     0.06600
C535        C  0.34198932  0.17173849  0.86338954     0.26300
C536        C  0.31519398  0.15104265  0.86106427    -0.11500
C537        C  0.28328058  0.16340327  0.86834243    -0.25400
C538        C  0.28021293  0.19473827  0.88873440     0.37100
C539        C  0.36290175  0.22911166  0.86908399     0.06600
F540        F  0.37179630  0.16059651  0.85008672    -0.19200
H541        H  0.31919140  0.12662015  0.84795968     0.16500
F542        F  0.25177731  0.20669442  0.90583178    -0.22900
H543        H  0.30352910  0.23978498  0.90370413     0.18300
C544        C  0.35860589  0.25418290  0.83922809     0.26300
C545        C  0.37982330  0.28044478  0.83694638    -0.11400
C546        C  0.40621172  0.28298739  0.86441371    -0.25500
C547        C  0.41010993  0.25696782  0.89451685     0.37200
C548        C  0.38909637  0.23023595  0.89579265    -0.27100
F549        F  0.33308498  0.25378993  0.81309743    -0.19200
H550        H  0.37454404  0.29967245  0.81445746     0.16500
F551        F  0.43168179  0.25755389  0.92580606    -0.22900
H552        H  0.39240141  0.21125753  0.91953481     0.18300
C553        C  0.25397991  0.64259872  0.35360816    -0.01300
C554        C  0.07497146  0.81606989  0.35115041    -0.01300
C555        C  0.42681138  0.81418537  0.36030983    -0.01300
C556        C  0.25299951  0.98901655  0.34944062    -0.01300
C557        C  0.24612796  0.64117803  0.02704136    -0.01300
C558        C  0.07308875  0.81491724  0.03001664    -0.01300
C559        C  0.42638601  0.81356903  0.03799572    -0.01300
C560        C  0.24739599  0.98843311  0.02452060    -0.01300
O561        O  0.47378714  0.79024331  0.39502446    -0.70500
O562        O  0.02788564  0.79000697  0.49199188    -0.70800
O563        O  0.46383974  0.78904835  0.48255409    -0.70600
O564        O  0.03788786  0.79062610  0.40518794    -0.70600
O565        O  0.02997244  0.84227288  0.39502184    -0.70600
O566        O  0.47030094  0.84065031  0.49468652    -0.70600
O567        O  0.03575393  0.84166706  0.48195268    -0.70600
O568        O  0.46417791  0.84139361  0.40835053    -0.70700
V569        V  0.50081994  0.79066483  0.44368222     1.35200
V570        V  0.50008488  0.84100352  0.44491908     1.35200
C571        C  0.45653700  0.81529178  0.38876992     0.78700
C572        C  0.04403855  0.81536809  0.50027563     0.78700
C573        C  0.45488756  0.81440537  0.50354411     0.78600
C574        C  0.04613220  0.81646902  0.38517882     0.78600
O575        O  0.27462018  0.59759432  0.48315465    -0.70500
O576        O  0.27720944  0.53137540  0.39507179    -0.70800
O577        O  0.27759990  0.59848969  0.39600399    -0.70600
O578        O  0.27481087  0.53186416  0.48231070    -0.70600
O579        O  0.22299950  0.53089958  0.48020448    -0.70600
O580        O  0.22555830  0.59851897  0.39484121    -0.70600
O581        O  0.22534390  0.53253330  0.39326651    -0.70600
O582        O  0.22262854  0.59805241  0.48188003    -0.70700
V583        V  0.27510861  0.56482524  0.43877097     1.35200
V584        V  0.22507819  0.56499949  0.43787115     1.35200
C585        C  0.24807803  0.61052300  0.49618344     0.78700
C586        C  0.25167004  0.51906942  0.38071110     0.78700
C587        C  0.25210884  0.61160375  0.38262306     0.78600
C588        C  0.24856665  0.51827489  0.49414812     0.78600
C589        C  0.36739243  0.88366388  0.07620060    -0.27000
C590        C  0.36295656  0.90109065  0.03753644     0.06600
C591        C  0.38361340  0.89255561  0.50130192     0.26300
C592        C  0.40470586  0.86570587  0.50217058    -0.11500
C593        C  0.40774518  0.84708180  0.04001942    -0.25400
C594        C  0.38828914  0.85665427  0.07728622     0.37100
C595        C  0.33479392  0.92475428  0.03444023     0.06600
F596        F  0.38348419  0.90973472  0.46399719    -0.19200
H597        H  0.41748651  0.85909924  0.47198145     0.16500
F598        F  0.38743329  0.83877120  0.11436169    -0.22900
H599        H  0.35389084  0.89012899  0.10595799     0.18300
C600        C  0.30569006  0.92008438  0.05949933     0.26300
C601        C  0.27966363  0.94164951  0.05647343    -0.11400
C602        C  0.27943469  0.96722333  0.02546985    -0.25500
C603        C  0.30766402  0.96981788  0.99747698     0.37200
C604        C  0.33523088  0.95063923  0.00417989    -0.27100
F605        F  0.30104908  0.89355127  0.08541875    -0.19200
H606        H  0.25826471  0.93686972  0.07706035     0.16500
F607        F  0.30885166  0.98815276  0.96106343    -0.22900
H608        H  0.35661727  0.95610758  0.98421687     0.18300
C609        C  0.14574567  0.86387317  0.47833412    -0.27000
C610        C  0.14088469  0.89577047  0.99870903     0.06600
C611        C  0.11095607  0.90141220  0.02192359     0.26300
C612        C  0.08785468  0.87650053  0.02628366    -0.11500
C613        C  0.09579097  0.84379767  0.01507096    -0.25400
C614        C  0.12441825  0.83816407  0.48753108     0.37100
C615        C  0.16779670  0.92072376  0.99647669     0.06600
F616        F  0.10427359  0.92993295  0.04329318    -0.19200
H617        H  0.06495398  0.88207806  0.04327925     0.16500
F618        F  0.13081520  0.80927515  0.46689180    -0.22900
H619        H  0.16560007  0.85910272  0.45510299     0.18300
C620        C  0.20057735  0.91108557  0.99076373     0.26300
C621        C  0.22535448  0.93379454  0.99397561    -0.11400
C622        C  0.21928469  0.96600748  0.00943292    -0.25500
C623        C  0.18646798  0.97643795  0.01102290     0.37200
C624        C  0.16154114  0.95441354  0.00285573    -0.27100
F625        F  0.20967741  0.87934060  0.98528031    -0.19200
H626        H  0.24957930  0.92467052  0.98699054     0.16500
F627        F  0.17777174  0.00683882  0.02547174    -0.22900
H628        H  0.13721193  0.96402276  0.00355132     0.18300
C629        C  0.15722914  0.67096325  0.02110198    -0.27000
C630        C  0.16194358  0.70390770  0.01052955     0.06600
C631        C  0.19257927  0.71403604  0.49615455     0.26300
C632        C  0.21909182  0.69314877  0.49750134    -0.11500
C633        C  0.21586478  0.66159387  0.01469634    -0.25400
C634        C  0.18373005  0.64960921  0.02196912     0.37100
C635        C  0.13627127  0.72843092  0.01916505     0.06600
F636        F  0.19715408  0.74535174  0.48250105    -0.19200
H637        H  0.24225107  0.70319121  0.48701733     0.16500
F638        F  0.17809621  0.61868627  0.03649818    -0.22900
H639        H  0.13338248  0.66229970  0.03150480     0.18300
C640        C  0.10800313  0.72885795  0.99610466     0.26300
C641        C  0.08748830  0.75608105  0.99882920    -0.11400
C642        C  0.09332922  0.78265886  0.02731206    -0.25500
C643        C  0.12091965  0.78025128  0.05287511     0.37200
C644        C  0.14201485  0.75379924  0.04833042    -0.27100
F645        F  0.10079343  0.70373166  0.96936403    -0.19200
H646        H  0.06841445  0.75595184  0.97641846     0.16500
F647        F  0.12937635  0.80496777  0.07960456    -0.22900
H648        H  0.16375556  0.75368759  0.06664158     0.18300
C649        C  0.30485874  0.71217373  0.05191438    -0.27000
C650        C  0.32992308  0.70892554  0.02001832     0.06600
C651        C  0.32925918  0.68181808  0.49048773     0.26300
C652        C  0.30249112  0.66071212  0.49122329    -0.11500
C653        C  0.27688251  0.66389091  0.02406144    -0.25400
C654        C  0.27901597  0.69029498  0.05419419     0.37100
C655        C  0.35534083  0.73471382  0.01648394     0.06600
F656        F  0.35366596  0.67683508  0.46029094    -0.19200
H657        H  0.30193938  0.64352098  0.46470614     0.16500
F658        F  0.25494118  0.69650811  0.08461118    -0.22900
H659        H  0.30500354  0.73227714  0.07504606     0.18300
C660        C  0.34622285  0.76774889  0.01512270     0.26300
C661        C  0.36899981  0.79253768  0.01929045    -0.11400
C662        C  0.40207609  0.78561337  0.02567484    -0.25500
C663        C  0.41142759  0.75195243  0.02234352     0.37200
C664        C  0.38828544  0.72707873  0.01820282    -0.27100
F665        F  0.31476269  0.77621743  0.01099947    -0.19200
H666        H  0.35960617  0.81718585  0.01869656     0.16500
F667        F  0.44238293  0.74247712  0.02816944    -0.22900
H668        H  0.39596378  0.70171106  0.01894561     0.18300
C669        C  0.28004758  0.99842536  0.22660830    -0.27000
C670        C  0.25247192  0.51325100  0.21094916     0.06600
C671        C  0.22809263  0.52392026  0.24095004     0.26300
C672        C  0.23162277  0.52035277  0.28570172    -0.11500
C673        C  0.25756598  0.50211827  0.30193419    -0.25400
C674        C  0.28227842  0.99169148  0.27090076     0.37100
C675        C  0.24745603  0.51274578  0.16342953     0.06600
F676        F  0.19962710  0.53520081  0.22686073    -0.19200
H677        H  0.21178681  0.52827600  0.30755748     0.16500
F678        F  0.30658281  0.97129480  0.28085110    -0.22900
H679        H  0.29856540  0.98880734  0.20385566     0.18300
C680        C  0.27084744  0.52497240  0.13332973     0.26300
C681        C  0.26751560  0.52067096  0.08860641    -0.11400
C682        C  0.24258095  0.50106474  0.07236200    -0.25500
C683        C  0.21914638  0.98863739  0.10356187     0.37200
C684        C  0.22114788  0.99561428  0.14789303    -0.27100
F685        F  0.29818981  0.53894646  0.14725317    -0.19200
H686        H  0.28672216  0.52967956  0.06667278     0.16500
F687        F  0.19659172  0.96629600  0.09349051    -0.22900
H688        H  0.20360461  0.98464506  0.17072801     0.18300
C689        C  0.46702806  0.83170396  0.14563646    -0.27000
C690        C  0.45612388  0.80584435  0.17228599     0.06600
C691        C  0.44007217  0.77965383  0.15364408     0.26300
C692        C  0.43180016  0.78105638  0.11029755    -0.11500
C693        C  0.44097758  0.80781794  0.08311429    -0.25400
C694        C  0.46059086  0.83226583  0.10139975     0.37100
C695        C  0.45330524  0.81033744  0.21997306     0.06600
F696        F  0.42869577  0.75456141  0.17879370    -0.19200
H697        H  0.41571357  0.76209541  0.10041836     0.16500
F698        F  0.47012160  0.85898385  0.07814224    -0.22900
H699        H  0.47898241  0.85250582  0.15970501     0.18300
C700        C  0.46731765  0.78883537  0.24915081     0.26300
C701        C  0.46071619  0.79238757  0.29415046    -0.11400
C702        C  0.43815046  0.81590071  0.31114150    -0.25500
C703        C  0.42238452  0.83548172  0.28008641     0.37200
C704        C  0.43139190  0.83384986  0.23607371    -0.27100
F705        F  0.48684454  0.76407871  0.23418158    -0.19200
H706        H  0.47174145  0.77514644  0.31554000     0.16500
F707        F  0.39493161  0.85271575  0.28982657    -0.22900
H708        H  0.41853597  0.84894938  0.21366894     0.18300
C709        C  0.35384191  0.86622547  0.40557634    -0.27000
C710        C  0.35912278  0.89597912  0.38337099     0.06600
C711        C  0.39030409  0.90099975  0.36348852     0.26300
C712        C  0.41351989  0.87591960  0.36268827    -0.11500
C713        C  0.40484819  0.84376415  0.37510180    -0.25400
C714        C  0.37584511  0.84033790  0.40106078     0.37100
C715        C  0.33209486  0.92064663  0.38080979     0.06600
F716        F  0.39800048  0.92872757  0.34130164    -0.19200
H717        H  0.43677297  0.88038435  0.34612183     0.16500
F718        F  0.36859497  0.81240284  0.42305691    -0.22900
H719        H  0.33261351  0.86265530  0.42683568     0.18300
C720        C  0.29945597  0.91064962  0.38218233     0.26300
C721        C  0.27466377  0.93317394  0.37700852    -0.11400
C722        C  0.28091157  0.96583608  0.36378867    -0.25500
C723        C  0.31366908  0.97615318  0.36450173     0.37200
C724        C  0.33830379  0.95425807  0.37472309    -0.27100
F725        F  0.29082755  0.87870109  0.38578465    -0.19200
H726        H  0.25048161  0.92357791  0.38147748     0.16500
F727        F  0.32276894  0.00660681  0.35137061    -0.22900
H728        H  0.36243682  0.96396049  0.37639113     0.18300
C729        C  0.06719405  0.78553659  0.23211134    -0.27000
C730        C  0.04563893  0.80861665  0.21706567     0.06600
C731        C  0.03086054  0.83101314  0.24645677     0.26300
C732        C  0.03760359  0.83002646  0.29051721    -0.11500
C733        C  0.06163365  0.80879725  0.30573627    -0.25400
C734        C  0.07654163  0.78649606  0.27489308     0.37100
C735        C  0.04604412  0.81404826  0.16985557     0.06600
F736        F  0.01149906  0.85512966  0.23211291    -0.19200
H737        H  0.02647494  0.84840899  0.31187597     0.16500
F738        F  0.10331871  0.76877024  0.28276716    -0.22900
H739        H  0.08006417  0.76933003  0.20916489     0.18300
C740        C  0.06597429  0.83871403  0.15265896     0.26300
C741        C  0.07386988  0.83967783  0.10831497    -0.11400
C742        C  0.06066336  0.81722555  0.07863673    -0.25500
C743        C  0.03967252  0.79283154  0.09673161     0.37200
C744        C  0.03318548  0.79093786  0.14179197    -0.27100
F745        F  0.08103674  0.85963993  0.17951400    -0.19200
H746        H  0.09306906  0.85631871  0.09913228     0.16500
F747        F  0.02782836  0.76875653  0.07157987    -0.22900
H748        H  0.01901656  0.77069978  0.15493522     0.18300
C749        C  0.11986668  0.89492351  0.38504115    -0.27000
C750        C  0.13578100  0.90482171  0.34599016     0.06600
C751        C  0.12696608  0.88921095  0.30738251     0.26300
C752        C  0.10650847  0.86196047  0.30886196    -0.11500
C753        C  0.09204125  0.85033011  0.34858260    -0.25400
C754        C  0.09817601  0.86865440  0.38634307     0.37100
C755        C  0.16372269  0.92838058  0.34621482     0.06600
F756        F  0.13860950  0.89969139  0.26786592    -0.19200
H757        H  0.10319626  0.84949050  0.27836150     0.16500
F758        F  0.08459706  0.86027723  0.42534103    -0.22900
H759        H  0.12529883  0.90631701  0.41543645     0.18300
C760        C  0.16581971  0.95361144  0.37747556     0.26300
C761        C  0.19422323  0.97212092  0.38031653    -0.11400
C762        C  0.22057076  0.96866770  0.34934501    -0.25500
C763        C  0.21768231  0.94354386  0.31758655     0.37200
C764        C  0.19047543  0.92350983  0.31707725    -0.27900
F765        F  0.14045851  0.96078412  0.40554752    -0.19200
H766        H  0.19503856  0.98803939  0.40814118     0.16500
F767        F  0.24253263  0.93632179  0.28871643    -0.22900
H768        H  0.19118718  0.90320154  0.29435754     0.18300
C769        C  0.27142314  0.60783123  0.13749441    -0.27000
C770        C  0.24666105  0.61904695  0.16661460     0.06600
C771        C  0.22002382  0.63495745  0.14998432     0.26300
C772        C  0.21882874  0.64056268  0.10548435    -0.11500
C773        C  0.24351503  0.62932096  0.07521697    -0.25400
C774        C  0.26953299  0.61183888  0.09246544     0.37100
C775        C  0.25124437  0.61950649  0.21414345     0.06600
F776        F  0.19689400  0.64873613  0.17714351    -0.19200
H777        H  0.19980445  0.65681351  0.09655357     0.16500
F778        F  0.29499981  0.60172683  0.06629945    -0.22900
H779        H  0.29316611  0.59747453  0.14993674     0.18300
C780        C  0.22712890  0.60888508  0.24442827     0.26300
C781        C  0.23067964  0.61325395  0.28911039    -0.11400
C782        C  0.25672354  0.63139287  0.30498645    -0.25500
C783        C  0.28038696  0.64295071  0.27333774     0.37200
C784        C  0.27824311  0.63549014  0.22931415    -0.27100
F785        F  0.19899729  0.59654731  0.23076654    -0.19200
H786        H  0.21122907  0.60518845  0.31126650     0.16500
F787        F  0.30280065  0.66577832  0.28218214    -0.22900
H788        H  0.29615559  0.64559101  0.20629976     0.18300
C789        C  0.11392653  0.73046645  0.36943509    -0.27000
C790        C  0.14672782  0.73820241  0.37136460     0.06600
C791        C  0.15563396  0.77128431  0.37373024     0.26300
C792        C  0.13257126  0.79611327  0.37037545    -0.11500
C793        C  0.09960610  0.78891953  0.36420583    -0.25400
C794        C  0.09062322  0.75518142  0.36588326     0.37100
C795        C  0.17193701  0.71223642  0.36594610     0.06600
F796        F  0.18709012  0.77970299  0.37760488    -0.19200
H797        H  0.14156039  0.82089454  0.37055834     0.16500
F798        F  0.06024174  0.74553407  0.35715989    -0.22900
H799        H  0.10654668  0.70509474  0.36715904     0.18300
C800        C  0.17230725  0.68467391  0.39288678     0.26300
C801        C  0.19808563  0.66235823  0.38978383    -0.11400
C802        C  0.22325794  0.66524192  0.35709786    -0.25500
C803        C  0.22140873  0.69255205  0.32862197     0.37200
C804        C  0.19642131  0.71548368  0.33337074    -0.27100
F805        F  0.14831232  0.67973984  0.42344052    -0.19200
H806        H  0.19837444  0.64434187  0.41514686     0.16500
F807        F  0.24514652  0.69881573  0.29793758    -0.22900
H808        H  0.19645750  0.73629168  0.31159859     0.18300
C809        C  0.30798296  0.71392207  0.39081978    -0.27000
C810        C  0.33828116  0.70315780  0.37485946     0.06600
C811        C  0.34254561  0.67038518  0.36232281     0.26300
C812        C  0.31555276  0.64992598  0.36031211    -0.11500
C813        C  0.28378133  0.66256340  0.36804618    -0.25400
C814        C  0.28111155  0.69384045  0.38862753     0.37100
C815        C  0.36388826  0.72760117  0.36799178     0.06600
F816        F  0.37217198  0.65903621  0.34854121    -0.19200
H817        H  0.31924032  0.62549675  0.34707841     0.16500
F818        F  0.25288715  0.70594447  0.40621583    -0.22900
H819        H  0.30491257  0.73864029  0.40344611     0.18300
C820        C  0.35967821  0.75246361  0.33781201     0.26300
C821        C  0.38052221  0.77903769  0.33591209    -0.11400
C822        C  0.40651489  0.78202432  0.36397553    -0.25500
C823        C  0.41031904  0.75621686  0.39439972     0.37200
C824        C  0.38966865  0.72920148  0.39535869    -0.27100
F825        F  0.33446169  0.75165296  0.31117692    -0.19200
H826        H  0.37525573  0.79813063  0.31321113     0.16500
F827        F  0.43123987  0.75742806  0.42645575    -0.22900
H828        H  0.39280418  0.71045545  0.41947002     0.18300
C829        C  0.25376720  0.64311034  0.85360595    -0.01300
C830        C  0.07483661  0.81666128  0.85117331    -0.01300
C831        C  0.42679998  0.81495133  0.86046581    -0.01300
C832        C  0.25289590  0.98946414  0.84965234    -0.01300
C833        C  0.24627583  0.64075234  0.52692445    -0.01300
C834        C  0.07313925  0.81447004  0.52987108    -0.01300
C835        C  0.42640377  0.81314397  0.53795477    -0.01300
C836        C  0.24718118  0.98798676  0.52452031    -0.01300
O837        O  0.47387973  0.79093022  0.89490931    -0.70500
O838        O  0.02773178  0.79051864  0.99218500    -0.70800
O839        O  0.46369254  0.78955666  0.98238285    -0.70600
O840        O  0.03793430  0.79120995  0.90540619    -0.70600
O841        O  0.02978148  0.84278920  0.89500864    -0.70600
O842        O  0.47044438  0.84104451  0.99502059    -0.70600
O843        O  0.03582685  0.84211524  0.98195664    -0.70600
O844        O  0.46407945  0.84196967  0.90873550    -0.70700
V845        V  0.50078274  0.79120883  0.94372189     1.35200
V846        V  0.50006984  0.84151191  0.94509638     1.35200
C847        C  0.45653623  0.81595541  0.88889313     0.78700
C848        C  0.04398609  0.81583274  0.00041077     0.78700
C849        C  0.45487972  0.81483993  0.00361874     0.78600
C850        C  0.04602004  0.81702015  0.88521835     0.78600
O851        O  0.27456431  0.59825587  0.98297227    -0.70500
O852        O  0.27714314  0.53177991  0.89527292    -0.70800
O853        O  0.27747906  0.59890984  0.89579371    -0.70600
O854        O  0.27484474  0.53253065  0.98250501    -0.70600
O855        O  0.22305661  0.53116099  0.98005565    -0.70600
O856        O  0.22541367  0.59916845  0.89522309    -0.70600
O857        O  0.22529499  0.53318426  0.89312516    -0.70600
O858        O  0.22254742  0.59830593  0.98224985    -0.70700
V859        V  0.27505794  0.56536360  0.93877409     1.35200
V860        V  0.22502352  0.56545677  0.93798063     1.35200
C861        C  0.24799279  0.61097480  0.99627869     0.78700
C862        C  0.25159976  0.51959791  0.88075191     0.78700
C863        C  0.25195192  0.61214671  0.88271096     0.78600
C864        C  0.24866671  0.51874198  0.99417955     0.78600
C865        C  0.36747642  0.88333837  0.57625785    -0.27000
C866        C  0.36276975  0.90059592  0.53754401     0.06600
C867        C  0.38408915  0.89329283  0.00151652     0.26300
C868        C  0.40510023  0.86639499  0.00240122    -0.11500
C869        C  0.40765224  0.84660921  0.53991682    -0.25400
C870        C  0.38837441  0.85632527  0.57729515     0.37100
C871        C  0.33466597  0.92439352  0.53468441     0.06600
F872        F  0.38429715  0.91072620  0.96438360    -0.19200
H873        H  0.41803858  0.85994153  0.97227877     0.16500
F874        F  0.38774505  0.83864646  0.61453351    -0.22900
H875        H  0.35422438  0.88996190  0.60614150     0.18300
C876        C  0.30573358  0.92006564  0.56026890     0.26300
C877        C  0.27970777  0.94165593  0.55722898    -0.11400
C878        C  0.27932491  0.96695720  0.52584714    -0.25500
C879        C  0.30739612  0.96925768  0.49750709     0.37200
C880        C  0.33496714  0.95007250  0.50412832    -0.27100
F881        F  0.30121757  0.89381242  0.58671620    -0.19200
H882        H  0.25840646  0.93706021  0.57808762     0.16500
F883        F  0.30834838  0.98719932  0.46075495    -0.22900
H884        H  0.35623130  0.95533539  0.48381224     0.18300
C885        C  0.14523421  0.86494234  0.97854621    -0.27000
C886        C  0.14124855  0.89490304  0.49787050     0.06600
C887        C  0.11117400  0.90076888  0.52060472     0.26300
C888        C  0.08804664  0.87591796  0.52510897    -0.11500
C889        C  0.09603502  0.84310633  0.51463711    -0.25400
C890        C  0.12396118  0.83915402  0.98750248     0.37100
C891        C  0.16813179  0.91986988  0.49557681     0.06600
F892        F  0.10435297  0.92947590  0.54144069    -0.19200
H893        H  0.06504203  0.88168068  0.54171553     0.16500
F894        F  0.13016483  0.81047922  0.96623612    -0.22900
H895        H  0.16490916  0.86041054  0.95495416     0.18300
C896        C  0.20095834  0.91027535  0.49058637     0.26300
C897        C  0.22563492  0.93306626  0.49412100    -0.11400
C898        C  0.21932408  0.96537072  0.50910901    -0.25500
C899        C  0.18648948  0.97570278  0.50991337     0.37200
C900        C  0.16175074  0.95357841  0.50137599    -0.27100
F901        F  0.21016059  0.87852683  0.48550803    -0.19200
H902        H  0.24992715  0.92394052  0.48775310     0.16500
F903        F  0.17749228  0.00609966  0.52402762    -0.22900
H904        H  0.13742245  0.96313696  0.50140445     0.18300
C905        C  0.15727488  0.67039152  0.52125794    -0.27000
C906        C  0.16188383  0.70338390  0.51087131     0.06600
C907        C  0.19265317  0.71441609  0.99567414     0.26300
C908        C  0.21910565  0.69348474  0.99721713    -0.11500
C909        C  0.21594946  0.66117279  0.51474780    -0.25400
C910        C  0.18384287  0.64910638  0.52202930     0.37100
C911        C  0.13609232  0.72779780  0.51951040     0.06600
F912        F  0.19730498  0.74564960  0.98173225    -0.19200
H913        H  0.24229978  0.70342688  0.98669187     0.16500
F914        F  0.17830144  0.61814157  0.53645723    -0.22900
H915        H  0.13344879  0.66162609  0.53157894     0.18300
C916        C  0.10808474  0.72845175  0.49590731     0.26300
C917        C  0.08760100  0.75570289  0.49856160    -0.11400
C918        C  0.09317873  0.78207366  0.52749054    -0.25500
C919        C  0.12046362  0.77942826  0.55357592     0.37200
C920        C  0.14154826  0.75294582  0.54913052    -0.27100
F921        F  0.10112949  0.70356000  0.46866424    -0.19200
H922        H  0.06888463  0.75585595  0.47564437     0.16500
F923        F  0.12866571  0.80395981  0.58075612    -0.22900
H924        H  0.16308694  0.75267079  0.56783340     0.18300
C925        C  0.30522857  0.71159712  0.55155217    -0.27000
C926        C  0.33025148  0.70826933  0.51962144     0.06600
C927        C  0.32903890  0.68247179  0.99088488     0.26300
C928        C  0.30235073  0.66128429  0.99156514    -0.11500
C929        C  0.27704593  0.66343803  0.52374053    -0.25400
C930        C  0.27930705  0.68982783  0.55386304     0.37100
C931        C  0.35566920  0.73405372  0.51604529     0.06600
F932        F  0.35347663  0.67757260  0.96071040    -0.19200
H933        H  0.30187636  0.64415766  0.96497110     0.16500
F934        F  0.25529490  0.69611912  0.58433948    -0.22900
H935        H  0.30545883  0.73170214  0.57467392     0.18300
C936        C  0.34650189  0.76706531  0.51444641     0.26300
C937        C  0.36917359  0.79191900  0.51887421    -0.11400
C938        C  0.40220440  0.78508637  0.52565840    -0.25500
C939        C  0.41164491  0.75143622  0.52258997     0.37200
C940        C  0.38859558  0.72649104  0.51824185    -0.27100
F941        F  0.31506528  0.77544231  0.50991081    -0.19200
H942        H  0.35972845  0.81654358  0.51815428     0.16500
F943        F  0.44258230  0.74206819  0.52877108    -0.22900
H944        H  0.39630691  0.70114023  0.51919488     0.18300
C945        C  0.27898769  0.99836208  0.72646043    -0.27000
C946        C  0.25120549  0.51289982  0.71095208     0.06600
C947        C  0.22688398  0.52347359  0.74111206     0.26300
C948        C  0.23075581  0.52021649  0.78585627    -0.11500
C949        C  0.25700726  0.50235732  0.80198026    -0.25400
C950        C  0.28158391  0.99194296  0.77076661     0.37100
C951        C  0.24620956  0.51252504  0.66340453     0.06600
F952        F  0.19824700  0.53450841  0.72725417    -0.19200
H953        H  0.21099384  0.52809655  0.80786399     0.16500
F954        F  0.30617023  0.97187907  0.78063302    -0.22900
H955        H  0.29747718  0.98880745  0.70361671     0.18300
C956        C  0.26970420  0.52481601  0.63349919     0.26300
C957        C  0.26667644  0.52043440  0.58874757    -0.11400
C958        C  0.24192446  0.50072971  0.57226295    -0.25500
C959        C  0.21822075  0.98843356  0.60320527     0.37200
C960        C  0.21996458  0.99542662  0.64760086    -0.27100
F961        F  0.29691896  0.53887771  0.64767741    -0.19200
H962        H  0.28600541  0.52944456  0.56701089     0.16500
F963        F  0.19558912  0.96626205  0.59283774    -0.22900
H964        H  0.20228019  0.98449644  0.67027066     0.18300
C965        C  0.46695380  0.83171408  0.64552367    -0.27000
C966        C  0.45595037  0.80601120  0.67237787     0.06600
C967        C  0.43986223  0.77976437  0.65391675     0.26300
C968        C  0.43170536  0.78093646  0.61050483    -0.11500
C969        C  0.44100302  0.80753107  0.58310177    -0.25400
C970        C  0.46063385  0.83203760  0.60123647     0.37100
C971        C  0.45316785  0.81067404  0.72005150     0.06600
F972        F  0.42834206  0.75485405  0.67927855    -0.19200
H973        H  0.41557983  0.76197282  0.60072794     0.16500
F974        F  0.47028499  0.85860348  0.57774951    -0.22900
H975        H  0.47893181  0.85256169  0.65944086     0.18300
C976        C  0.46721846  0.78927129  0.74932055     0.26300
C977        C  0.46058813  0.79288771  0.79431263    -0.11400
C978        C  0.43804228  0.81644527  0.81123377    -0.25500
C979        C  0.42226797  0.83595148  0.78009700     0.37200
C980        C  0.43124545  0.83420597  0.73607169    -0.27100
F981        F  0.48681601  0.76454336  0.73444040    -0.19200
H982        H  0.47162764  0.77569532  0.81574937     0.16500
F983        F  0.39488811  0.85331056  0.78981260    -0.22900
H984        H  0.41838380  0.84925165  0.71361217     0.18300
C985        C  0.35441477  0.86748983  0.90627472    -0.27000
C986        C  0.35954363  0.89705621  0.88358142     0.06600
C987        C  0.39058384  0.90191447  0.86319783     0.26300
C988        C  0.41375843  0.87678706  0.86233823    -0.11500
C989        C  0.40508421  0.84472918  0.87519811    -0.25400
C990        C  0.37635104  0.84155750  0.90175810     0.37100
C991        C  0.33245333  0.92163023  0.88094146     0.06600
F992        F  0.39812661  0.92948302  0.84057138    -0.19200
H993        H  0.43690997  0.88109941  0.84542043     0.16500
F994        F  0.36932018  0.81381332  0.92429548    -0.22900
H995        H  0.33336051  0.86411293  0.92792066     0.18300
C996        C  0.29984576  0.91153044  0.88281939     0.26300
C997        C  0.27495290  0.93392478  0.87766835    -0.11400
C998        C  0.28101398  0.96649346  0.86389598    -0.25500
C999        C  0.31374585  0.97694957  0.86413578     0.37200
C1000       C  0.33853576  0.95521113  0.87430860    -0.27100
F1001       F  0.29132721  0.87958018  0.88691037    -0.19200
H1002       H  0.25082230  0.92428601  0.88263012     0.16500
F1003       F  0.32261897  0.00739118  0.85067264    -0.22900
H1004       H  0.36266919  0.96499299  0.87553504     0.18300
C1005       C  0.06736533  0.78652728  0.73190535    -0.27000
C1006       C  0.04562940  0.80945438  0.71693051     0.06600
C1007       C  0.03073269  0.83173424  0.74639409     0.26300
C1008       C  0.03748427  0.83071981  0.79047334    -0.11500
C1009       C  0.06156570  0.80953653  0.80566218    -0.25400
C1010       C  0.07666323  0.78743954  0.77470328     0.37100
C1011       C  0.04580715  0.81471776  0.66967491     0.06600
F1012       F  0.01117382  0.85571307  0.73213527    -0.19200
H1013       H  0.02624258  0.84898952  0.81190338     0.16500
F1014       F  0.10357053  0.76989392  0.78251506    -0.22900
H1015       H  0.08035050  0.77044429  0.70891354     0.18300
C1016       C  0.06550126  0.83945765  0.65215220     0.26300
C1017       C  0.07354362  0.84004658  0.60781528    -0.11400
C1018       C  0.06061721  0.81718203  0.57843255    -0.25500
C1019       C  0.03969895  0.79284524  0.59680411     0.37200
C1020       C  0.03316522  0.79127445  0.64188138    -0.27100
F1021       F  0.08026577  0.86081637  0.67873378    -0.19200
H1022       H  0.09265425  0.85674337  0.59847970     0.16500
F1023       F  0.02803273  0.76850344  0.57192569    -0.22900
H1024       H  0.01915280  0.77101359  0.65527119     0.18300
C1025       C  0.11956305  0.89549933  0.88552155    -0.27000
C1026       C  0.13577527  0.90524786  0.84663111     0.06600
C1027       C  0.12719000  0.88960993  0.80793943     0.26300
C1028       C  0.10668599  0.86241938  0.80923824    -0.11500
C1029       C  0.09195340  0.85087814  0.84882536    -0.25400
C1030       C  0.09786376  0.86925035  0.88664223     0.37100
C1031       C  0.16380780  0.92863850  0.84709308     0.06600
F1032       F  0.13913081  0.89998909  0.76851796    -0.19200
H1033       H  0.10354868  0.84992188  0.77871541     0.16500
F1034       F  0.08402184  0.86101128  0.92553598    -0.22900
H1035       H  0.12476616  0.90698143  0.91594736     0.18300
C1036       C  0.16584700  0.95399971  0.87818865     0.26300
C1037       C  0.19423079  0.97255465  0.88091668    -0.11400
C1038       C  0.22060638  0.96891976  0.85003415    -0.25500
C1039       C  0.21783797  0.94354016  0.81862211     0.37200
C1040       C  0.19066598  0.92350026  0.81824212    -0.27900
F1041       F  0.14044993  0.96129183  0.90614639    -0.19200
H1042       H  0.19498731  0.98871302  0.90850821     0.16500
F1043       F  0.24275113  0.93614940  0.78992641    -0.22900
H1044       H  0.19144963  0.90302544  0.79578468     0.18300
C1045       C  0.27203701  0.60790653  0.63745089    -0.27000
C1046       C  0.24731791  0.61915274  0.66661283     0.06600
C1047       C  0.22055682  0.63486087  0.65000637     0.26300
C1048       C  0.21917599  0.64022864  0.60547720    -0.11500
C1049       C  0.24381561  0.62896714  0.57515356    -0.25400
C1050       C  0.26995206  0.61164770  0.59239284     0.37100
C1051       C  0.25189028  0.61965787  0.71415252     0.06600
F1052       F  0.19743970  0.64863768  0.67718997    -0.19200
H1053       H  0.20003135  0.65632985  0.59654728     0.16500
F1054       F  0.29533574  0.60143759  0.56614995    -0.22900
H1055       H  0.29385063  0.59765501  0.64984868     0.18300
C1056       C  0.22784600  0.60874385  0.74432806     0.26300
C1057       C  0.23116000  0.61327547  0.78902727    -0.11400
C1058       C  0.25691841  0.63176169  0.80504149    -0.25500
C1059       C  0.28062299  0.64344943  0.77352599     0.37200
C1060       C  0.27867505  0.63594730  0.72945541    -0.27100
F1061       F  0.19995845  0.59596966  0.73049797    -0.19200
H1062       H  0.21171837  0.60502871  0.81107247     0.16500
F1063       F  0.30287112  0.66640275  0.78254077    -0.22900
H1064       H  0.29654653  0.64620064  0.70651058     0.18300
C1065       C  0.11356012  0.73089406  0.86882318    -0.27000
C1066       C  0.14638950  0.73852377  0.87066272     0.06600
C1067       C  0.15541227  0.77156560  0.87316806     0.26300
C1068       C  0.13240311  0.79648454  0.87015282    -0.11500
C1069       C  0.09940451  0.78941102  0.86406148    -0.25400
C1070       C  0.09032585  0.75569569  0.86548815     0.37100
C1071       C  0.17149748  0.71247883  0.86519341     0.06600
F1072       F  0.18691805  0.77985809  0.87687425    -0.19200
H1073       H  0.14144034  0.82124875  0.87050696     0.16500
F1074       F  0.05989225  0.74619355  0.85680142    -0.22900
H1075       H  0.10610244  0.70555093  0.86645922     0.18300
C1076       C  0.17190707  0.68505837  0.89236370     0.26300
C1077       C  0.19769033  0.66274492  0.88938139    -0.11400
C1078       C  0.22285518  0.66551124  0.85664508    -0.25500
C1079       C  0.22093591  0.69267364  0.82792245     0.37200
C1080       C  0.19591522  0.71558179  0.83250782    -0.27100
F1081       F  0.14800054  0.68035290  0.92312588    -0.19200
H1082       H  0.19804750  0.64492496  0.91498176     0.16500
F1083       F  0.24468972  0.69890726  0.79725075    -0.22900
H1084       H  0.19592359  0.73631259  0.81060640     0.18300
C1085       C  0.30689263  0.71506240  0.89122148    -0.27000
C1086       C  0.33738501  0.70451809  0.87573146     0.06600
C1087       C  0.34198923  0.67174166  0.86339357     0.26300
C1088       C  0.31519466  0.65104485  0.86106796    -0.11500
C1089       C  0.28328067  0.66340480  0.86834284    -0.25400
C1090       C  0.28021129  0.69474084  0.88873154     0.37100
C1091       C  0.36290006  0.72911561  0.86908429     0.06600
F1092       F  0.37179701  0.66059973  0.85009436    -0.19200
H1093       H  0.31919340  0.62662245  0.84796533     0.16500
F1094       F  0.25177474  0.70669729  0.90582546    -0.22900
H1095       H  0.30352558  0.73978895  0.90369863     0.18300
C1096       C  0.35860382  0.75418721  0.83922912     0.26300
C1097       C  0.37982204  0.78044842  0.83694616    -0.11400
C1098       C  0.40621167  0.78298996  0.86441168    -0.25500
C1099       C  0.41011029  0.75696996  0.89451402     0.37200
C1100       C  0.38909593  0.73023873  0.89579089    -0.27100
F1101       F  0.33308210  0.75379511  0.81309979    -0.19200
H1102       H  0.37454256  0.79967606  0.81445817     0.16500
F1103       F  0.43168368  0.75755465  0.92580135    -0.22900
H1104       H  0.39240156  0.71125996  0.91953200     0.18300
C1105       C  0.75398024  0.14259878  0.35360773    -0.01300
C1106       C  0.57497159  0.31606973  0.35115025    -0.01300
C1107       C  0.92681152  0.31418570  0.36030970    -0.01300
C1108       C  0.75299964  0.48901685  0.34944097    -0.01300
C1109       C  0.74612827  0.14117834  0.02704088    -0.01300
C1110       C  0.57308891  0.31491762  0.03001623    -0.01300
C1111       C  0.92638611  0.31356958  0.03799569    -0.01300
C1112       C  0.74739600  0.48843378  0.02452116    -0.01300
O1113       O  0.97378714  0.29024354  0.39502459    -0.70500
O1114       O  0.52788578  0.29000694  0.49199157    -0.70800
O1115       O  0.96383976  0.28904858  0.48255421    -0.70600
O1116       O  0.53788783  0.29062584  0.40518754    -0.70600
O1117       O  0.52997248  0.34227265  0.39502154    -0.70600
O1118       O  0.97030096  0.34065053  0.49468670    -0.70600
O1119       O  0.53575367  0.34166709  0.48195247    -0.70600
O1120       O  0.96417796  0.34139385  0.40835065    -0.70700
V1121       V  0.00081996  0.29066507  0.44368235     1.35200
V1122       V  0.00008492  0.34100376  0.44491923     1.35200
C1123       C  0.95653708  0.31529205  0.38876997     0.78700
C1124       C  0.54403844  0.31536818  0.50027546     0.78700
C1125       C  0.95488757  0.31440558  0.50354425     0.78600
C1126       C  0.54613224  0.31646879  0.38517853     0.78600
O1127       O  0.77462017  0.09759435  0.48315431    -0.70500
O1128       O  0.77720929  0.03137542  0.39507150    -0.70800
O1129       O  0.77760006  0.09848969  0.39600367    -0.70600
O1130       O  0.77481061  0.03186410  0.48231035    -0.70600
O1131       O  0.72299924  0.03089969  0.48020394    -0.70600
O1132       O  0.72555846  0.09851913  0.39484073    -0.70600
O1133       O  0.72534376  0.03253356  0.39326598    -0.70600
O1134       O  0.72262852  0.09805257  0.48187964    -0.70700
V1135       V  0.77510854  0.06482524  0.43877065     1.35200
V1136       V  0.72507812  0.06499966  0.43787069     1.35200
C1137       C  0.74807804  0.11052309  0.49618307     0.78700
C1138       C  0.75166987  0.01906959  0.38071066     0.78700
C1139       C  0.75210907  0.11160380  0.38262262     0.78600
C1140       C  0.74856633  0.01827484  0.49414757     0.78600
C1141       C  0.86739270  0.38366461  0.07620069    -0.27000
C1142       C  0.86295661  0.40109119  0.03753642     0.06600
C1143       C  0.88361340  0.39255574  0.50130195     0.26300
C1144       C  0.90470583  0.36570601  0.50217066    -0.11500
C1145       C  0.90774527  0.34708235  0.04001940    -0.25400
C1146       C  0.88828941  0.35665497  0.07728628     0.37100
C1147       C  0.83479396  0.42475489  0.03444043     0.06600
F1148       F  0.88348453  0.40973506  0.46399736    -0.19200
H1149       H  0.91748670  0.35909946  0.47198148     0.16500
F1150       F  0.88743376  0.33877212  0.11436193    -0.22900
H1151       H  0.85389143  0.39012985  0.10595800     0.18300
C1152       C  0.80569030  0.42008527  0.05950005     0.26300
C1153       C  0.77966386  0.44165042  0.05647428    -0.11400
C1154       C  0.77943473  0.46722402  0.02547038    -0.25500
C1155       C  0.80766382  0.46981828  0.99747705     0.37200
C1156       C  0.83523075  0.45063963  0.00417973    -0.27100
F1157       F  0.80104946  0.39355238  0.08541989    -0.19200
H1158       H  0.75826517  0.43687083  0.07706144     0.16500
F1159       F  0.80885113  0.48815274  0.96106312    -0.22900
H1160       H  0.85661672  0.45610773  0.98421650     0.18300
C1161       C  0.64574541  0.36387371  0.47833463    -0.27000
C1162       C  0.64088465  0.39577113  0.99870917     0.06600
C1163       C  0.61095592  0.40141277  0.02192352     0.26300
C1164       C  0.58785458  0.37650103  0.02628334    -0.11500
C1165       C  0.59579097  0.34379821  0.01507059    -0.25400
C1166       C  0.62441801  0.33816457  0.48753136     0.37100
C1167       C  0.66779669  0.42072439  0.99647721     0.06600
F1168       F  0.60427335  0.42993349  0.04329312    -0.19200
H1169       H  0.56495362  0.38207851  0.04327900     0.16500
F1170       F  0.63081509  0.30927569  0.46689207    -0.22900
H1171       H  0.66559987  0.35910331  0.45510360     0.18300
C1172       C  0.70057735  0.41108614  0.99076463     0.26300
C1173       C  0.72535448  0.43379507  0.99397663    -0.11400
C1174       C  0.71928470  0.46600810  0.00943358    -0.25500
C1175       C  0.68646799  0.47643859  0.01102334     0.37200
C1176       C  0.66154116  0.45441417  0.00285614    -0.27100
F1177       F  0.70967736  0.37934115  0.98528135    -0.19200
H1178       H  0.74957939  0.42467092  0.98699180     0.16500
F1179       F  0.67777174  0.50683950  0.02547199    -0.22900
H1180       H  0.63721183  0.46402344  0.00355159     0.18300
C1181       C  0.65722964  0.17096404  0.02110157    -0.27000
C1182       C  0.66194421  0.20390842  0.01052899     0.06600
C1183       C  0.69257982  0.21403676  0.49615532     0.26300
C1184       C  0.71909221  0.19314925  0.49750158    -0.11500
C1185       C  0.71586520  0.16159433  0.01469581    -0.25400
C1186       C  0.68373040  0.14960983  0.02196866     0.37100
C1187       C  0.63627196  0.22843174  0.01916425     0.06600
F1188       F  0.69715482  0.24535260  0.48250247    -0.19200
H1189       H  0.74225170  0.20319171  0.48701758     0.16500
F1190       F  0.67809642  0.11868691  0.03649767    -0.22900
H1191       H  0.63338272  0.16230055  0.03150455     0.18300
C1192       C  0.60800376  0.22885859  0.99610401     0.26300
C1193       C  0.58748877  0.25608157  0.99882858    -0.11400
C1194       C  0.59332959  0.28265939  0.02731150    -0.25500
C1195       C  0.62092007  0.28025197  0.05287445     0.37200
C1196       C  0.64201549  0.25380011  0.04832955    -0.27100
F1197       F  0.60079408  0.20373223  0.96936349    -0.19200
H1198       H  0.56841506  0.25595223  0.97641805     0.16500
F1199       F  0.62937655  0.30496842  0.07960409    -0.22900
H1200       H  0.66375623  0.25368859  0.06664064     0.18300
C1201       C  0.80485895  0.21217417  0.05191369    -0.27000
C1202       C  0.82992327  0.20892602  0.02001761     0.06600
C1203       C  0.82925927  0.18181806  0.49048703     0.26300
C1204       C  0.80249114  0.16071219  0.49122272    -0.11500
C1205       C  0.77688289  0.16389114  0.02406099    -0.25400
C1206       C  0.77901627  0.19029532  0.05419360     0.37100
C1207       C  0.85534099  0.23471436  0.01648327     0.06600
F1208       F  0.85366579  0.17683532  0.46028980    -0.19200
H1209       H  0.80193909  0.14352107  0.46470510     0.16500
F1210       F  0.75494143  0.19650853  0.08461050    -0.22900
H1211       H  0.80500368  0.23227760  0.07504528     0.18300
C1212       C  0.84622297  0.26774945  0.01512240     0.26300
C1213       C  0.86899991  0.29253823  0.01929040    -0.11400
C1214       C  0.90207618  0.28561393  0.02567471    -0.25500
C1215       C  0.91142770  0.25195299  0.02234320     0.37200
C1216       C  0.88828559  0.22707930  0.01820216    -0.27100
F1217       F  0.81476279  0.27621801  0.01099943    -0.19200
H1218       H  0.85960619  0.31718646  0.01869680     0.16500
F1219       F  0.94238302  0.24247764  0.02816916    -0.22900
H1220       H  0.89596398  0.20171156  0.01894479     0.18300
C1221       C  0.78004772  0.49842618  0.22660874    -0.27000
C1222       C  0.75247094  0.01325149  0.21094870     0.06600
C1223       C  0.72809155  0.02392035  0.24094978     0.26300
C1224       C  0.73162190  0.02035279  0.28570139    -0.11500
C1225       C  0.75756535  0.00211858  0.30193369    -0.25400
C1226       C  0.78227856  0.49169204  0.27090109     0.37100
C1227       C  0.74745506  0.01274644  0.16342902     0.06600
F1228       F  0.69962586  0.03520063  0.22686067    -0.19200
H1229       H  0.71178568  0.02827586  0.30755757     0.16500
F1230       F  0.80658293  0.47129530  0.28085129    -0.22900
H1231       H  0.79856578  0.48880822  0.20385583     0.18300
C1232       C  0.77084668  0.02497280  0.13332929     0.26300
C1233       C  0.76751500  0.02067127  0.08860598    -0.11400
C1234       C  0.74258035  0.00106512  0.07236147    -0.25500
C1235       C  0.71914624  0.48863848  0.10356240     0.37200
C1236       C  0.72114781  0.49561540  0.14789352    -0.27100
F1237       F  0.79818913  0.03894665  0.14725282    -0.19200
H1238       H  0.78672175  0.02967970  0.06667242     0.16500
F1239       F  0.69659132  0.46629737  0.09349108    -0.22900
H1240       H  0.70360433  0.48464626  0.17072865     0.18300
C1241       C  0.96702818  0.33170440  0.14563640    -0.27000
C1242       C  0.95612404  0.30584477  0.17228590     0.06600
C1243       C  0.94007236  0.27965423  0.15364392     0.26300
C1244       C  0.93180029  0.28105683  0.11029742    -0.11500
C1245       C  0.94097766  0.30781845  0.08311425    -0.25400
C1246       C  0.96059096  0.33226633  0.10139971     0.37100
C1247       C  0.95330544  0.31033785  0.21997296     0.06600
F1248       F  0.92869613  0.25456169  0.17879345    -0.19200
H1249       H  0.91571379  0.26209584  0.10041815     0.16500
F1250       F  0.97012170  0.35898435  0.07814222    -0.22900
H1251       H  0.97898258  0.35250632  0.15970502     0.18300
C1252       C  0.96731779  0.28883570  0.24915074     0.26300
C1253       C  0.96071636  0.29238800  0.29415034    -0.11400
C1254       C  0.93815074  0.31590117  0.31114143    -0.25500
C1255       C  0.92238488  0.33548229  0.28008632     0.37200
C1256       C  0.93139227  0.33385040  0.23607364    -0.27100
F1257       F  0.98684452  0.26407895  0.23418149    -0.19200
H1258       H  0.97174170  0.27514657  0.31554021     0.16500
F1259       F  0.89493203  0.35271642  0.28982646    -0.22900
H1260       H  0.91853637  0.34895004  0.21366880     0.18300
C1261       C  0.85384208  0.36622573  0.40557643    -0.27000
C1262       C  0.85912297  0.39597947  0.38337131     0.06600
C1263       C  0.89030430  0.40100010  0.36348887     0.26300
C1264       C  0.91352004  0.37591989  0.36268843    -0.11500
C1265       C  0.90484827  0.34376440  0.37510170    -0.25400
C1266       C  0.87584516  0.34033808  0.40106058     0.37100
C1267       C  0.83209509  0.42064705  0.38081021     0.06600
F1268       F  0.89800081  0.42872801  0.34130228    -0.19200
H1269       H  0.93677307  0.38038466  0.34612212     0.16500
F1270       F  0.86859489  0.31240291  0.42305636    -0.22900
H1271       H  0.83261361  0.36265551  0.42683597     0.18300
C1272       C  0.79945614  0.41065008  0.38218301     0.26300
C1273       C  0.77466398  0.43317440  0.37700915    -0.11400
C1274       C  0.78091176  0.46583646  0.36378900    -0.25500
C1275       C  0.81366931  0.47615358  0.36450191     0.37200
C1276       C  0.83830397  0.45425846  0.37472330    -0.27100
F1277       F  0.79082763  0.37870160  0.38578561    -0.19200
H1278       H  0.75048177  0.42357840  0.38147833     0.16500
F1279       F  0.82276913  0.50660718  0.35137066    -0.22900
H1280       H  0.86243737  0.46396104  0.37639124     0.18300
C1281       C  0.56719450  0.28553656  0.23211101    -0.27000
C1282       C  0.54563928  0.30861652  0.21706533     0.06600
C1283       C  0.53086077  0.33101292  0.24645644     0.26300
C1284       C  0.53760381  0.33002627  0.29051690    -0.11500
C1285       C  0.56163391  0.30879712  0.30573600    -0.25400
C1286       C  0.57654200  0.28649602  0.27489282     0.37100
C1287       C  0.54604443  0.31404811  0.16985521     0.06600
F1288       F  0.51149921  0.35512936  0.23211256    -0.19200
H1289       H  0.52647508  0.34840870  0.31187562     0.16500
F1290       F  0.60331910  0.26877026  0.28276696    -0.22900
H1291       H  0.58006468  0.26933013  0.20916465     0.18300
C1292       C  0.56597426  0.33871417  0.15265862     0.26300
C1293       C  0.57386979  0.33967814  0.10831462    -0.11400
C1294       C  0.56066355  0.31722572  0.07863634    -0.25500
C1295       C  0.53967307  0.29283136  0.09673121     0.37200
C1296       C  0.53318609  0.29093756  0.14179156    -0.27100
F1297       F  0.58103646  0.35964025  0.17951368    -0.19200
H1298       H  0.59306875  0.35631930  0.09913196     0.16500
F1299       F  0.52782931  0.26875618  0.07157941    -0.22900
H1300       H  0.51901738  0.27069918  0.15493484     0.18300
C1301       C  0.61986684  0.39492329  0.38504134    -0.27000
C1302       C  0.63578143  0.40482141  0.34599049     0.06600
C1303       C  0.62696668  0.38921060  0.30738279     0.26300
C1304       C  0.60650892  0.36196020  0.30886206    -0.11500
C1305       C  0.59204143  0.35032995  0.34858261    -0.25400
C1306       C  0.59817607  0.36865424  0.38634310     0.37100
C1307       C  0.66372308  0.42838038  0.34621531     0.06600
F1308       F  0.63861033  0.39969090  0.26786625    -0.19200
H1309       H  0.60319684  0.34949035  0.27836187     0.16500
F1310       F  0.58459691  0.36027714  0.42534096    -0.22900
H1311       H  0.62529882  0.40631687  0.41543672     0.18300
C1312       C  0.66582002  0.45361126  0.37747610     0.26300
C1313       C  0.69422343  0.47212094  0.38031694    -0.11400
C1314       C  0.72057094  0.46866790  0.34934538    -0.25500
C1315       C  0.71768259  0.44354402  0.31758691     0.37200
C1316       C  0.69047585  0.42350980  0.31707773    -0.27900
F1317       F  0.64045883  0.46078381  0.40554812    -0.19200
H1318       H  0.69503872  0.48803961  0.40814173     0.16500
F1319       F  0.74253287  0.43632218  0.28871664    -0.22900
H1320       H  0.69118772  0.40320148  0.29435802     0.18300
C1321       C  0.77142328  0.10783145  0.13749396    -0.27000
C1322       C  0.74666116  0.11904717  0.16661411     0.06600
C1323       C  0.72002402  0.13495779  0.14998383     0.26300
C1324       C  0.71882900  0.14056311  0.10548386    -0.11500
C1325       C  0.74351529  0.12932130  0.07521650    -0.25400
C1326       C  0.76953318  0.11183915  0.09246499     0.37100
C1327       C  0.75124450  0.11950668  0.21414293     0.06600
F1328       F  0.69689422  0.14873652  0.17714303    -0.19200
H1329       H  0.69980485  0.15681397  0.09655312     0.16500
F1330       F  0.79500000  0.10172705  0.06629904    -0.22900
H1331       H  0.79316613  0.09747478  0.14993626     0.18300
C1332       C  0.72712904  0.10888523  0.24442776     0.26300
C1333       C  0.73067976  0.11325415  0.28910988    -0.11400
C1334       C  0.75672367  0.13139304  0.30498595    -0.25500
C1335       C  0.78038703  0.14295099  0.27333714     0.37200
C1336       C  0.77824319  0.13549035  0.22931362    -0.27100
F1337       F  0.69899751  0.09654733  0.23076596    -0.19200
H1338       H  0.71122915  0.10518861  0.31126608     0.16500
F1339       F  0.80280056  0.16577878  0.28218142    -0.22900
H1340       H  0.79615577  0.14559133  0.20629905     0.18300
C1341       C  0.61392671  0.23046628  0.36943472    -0.27000
C1342       C  0.64672797  0.23820232  0.37136470     0.06600
C1343       C  0.65563399  0.27128418  0.37373090     0.26300
C1344       C  0.63257129  0.29611316  0.37037592    -0.11500
C1345       C  0.59960619  0.28891934  0.36420577    -0.25400
C1346       C  0.59062337  0.25518125  0.36588291     0.37100
C1347       C  0.67193728  0.21223647  0.36594616     0.06600
F1348       F  0.68709007  0.27970290  0.37760637    -0.19200
H1349       H  0.64156027  0.32089413  0.37055917     0.16500
F1350       F  0.56024194  0.24553390  0.35715926    -0.22900
H1351       H  0.60654697  0.20509461  0.36715838     0.18300
C1352       C  0.67230770  0.18467400  0.39288697     0.26300
C1353       C  0.69808613  0.16235844  0.38978389    -0.11400
C1354       C  0.72325834  0.16524209  0.35709781    -0.25500
C1355       C  0.72140906  0.19255230  0.32862198     0.37200
C1356       C  0.69642157  0.21548381  0.33337084    -0.27100
F1357       F  0.64831290  0.17973999  0.42344092    -0.19200
H1358       H  0.69837510  0.14434189  0.41514734     0.16500
F1359       F  0.74514682  0.19881605  0.29793760    -0.22900
H1360       H  0.69645768  0.23629208  0.31159849     0.18300
C1361       C  0.80798385  0.21392185  0.39081860    -0.27000
C1362       C  0.83828192  0.20315754  0.37485781     0.06600
C1363       C  0.84254619  0.17038491  0.36232102     0.26300
C1364       C  0.81555325  0.14992572  0.36031088    -0.11500
C1365       C  0.78378189  0.16256324  0.36804549    -0.25400
C1366       C  0.78111237  0.19384027  0.38862684     0.37100
C1367       C  0.86388908  0.22760087  0.36799025     0.06600
F1368       F  0.87217243  0.15903588  0.34853891    -0.19200
H1369       H  0.81924058  0.12549654  0.34707720     0.16500
F1370       F  0.75288816  0.20594423  0.40621580    -0.22900
H1371       H  0.80491361  0.23864008  0.40344509     0.18300
C1372       C  0.85967909  0.25246335  0.33781050     0.26300
C1373       C  0.88052274  0.27903774  0.33591120    -0.11400
C1374       C  0.90651511  0.28202457  0.36397511    -0.25500
C1375       C  0.91031916  0.25621713  0.39439936     0.37200
C1376       C  0.88966910  0.22920149  0.39535777    -0.27100
F1377       F  0.83446286  0.25165249  0.31117494    -0.19200
H1378       H  0.87525628  0.29813065  0.31321032     0.16500
F1379       F  0.93123944  0.25742871  0.42645603    -0.22900
H1380       H  0.89280449  0.21045542  0.41946935     0.18300
C1381       C  0.75376760  0.14311069  0.85360555    -0.01300
C1382       C  0.57483676  0.31666154  0.85117314    -0.01300
C1383       C  0.92680027  0.31495150  0.86046587    -0.01300
C1384       C  0.75289614  0.48946452  0.84965259    -0.01300
C1385       C  0.74627592  0.14075244  0.52692411    -0.01300
C1386       C  0.57313906  0.31447035  0.52987113    -0.01300
C1387       C  0.92640377  0.31314410  0.53795490    -0.01300
C1388       C  0.74718109  0.48798712  0.52452065    -0.01300
O1389       O  0.97387990  0.29093046  0.89490957    -0.70500
O1390       O  0.52773208  0.29051872  0.99218464    -0.70800
O1391       O  0.96369274  0.28955714  0.98238307    -0.70600
O1392       O  0.53793445  0.29121002  0.90540583    -0.70600
O1393       O  0.52978148  0.34278927  0.89500846    -0.70600
O1394       O  0.97044453  0.34104503  0.99502058    -0.70600
O1395       O  0.53582672  0.34211540  0.98195643    -0.70600
O1396       O  0.96407966  0.34196996  0.90873553    -0.70700
V1397       V  0.00078291  0.29120918  0.94372209     1.35200
V1398       V  0.00007004  0.34151227  0.94509641     1.35200
C1399       C  0.95653644  0.31595566  0.88889326     0.78700
C1400       C  0.54398620  0.31583295  0.00041044     0.78700
C1401       C  0.95487986  0.31484047  0.00361879     0.78600
C1402       C  0.54602015  0.31702031  0.88521815     0.78600
O1403       O  0.77456445  0.09825599  0.98297183    -0.70500
O1404       O  0.77714299  0.03178012  0.89527233    -0.70800
O1405       O  0.77747924  0.09891005  0.89579332    -0.70600
O1406       O  0.77484457  0.03253068  0.98250438    -0.70600
O1407       O  0.72305643  0.03116136  0.98005516    -0.70600
O1408       O  0.72541386  0.09916880  0.89522249    -0.70600
O1409       O  0.72529483  0.03318458  0.89312465    -0.70600
O1410       O  0.72254757  0.09830637  0.98224929    -0.70700
V1411       V  0.77505793  0.06536374  0.93877359     1.35200
V1412       V  0.72502351  0.06545714  0.93798010     1.35200
C1413       C  0.74799299  0.11097509  0.99627819     0.78700
C1414       C  0.75159957  0.01959818  0.88075133     0.78700
C1415       C  0.75195217  0.11214701  0.88271048     0.78600
C1416       C  0.74866647  0.01874215  0.99417899     0.78600
C1417       C  0.86747602  0.38333824  0.57625770    -0.27000
C1418       C  0.86276952  0.40059593  0.53754389     0.06600
C1419       C  0.88408896  0.39329317  0.00151636     0.26300
C1420       C  0.90510008  0.36639534  0.00240104    -0.11500
C1421       C  0.90765205  0.34660923  0.53991683    -0.25400
C1422       C  0.88837400  0.35632514  0.57729503     0.37100
C1423       C  0.83466572  0.42439354  0.53468423     0.06600
F1424       F  0.88429680  0.41072637  0.96438332    -0.19200
H1425       H  0.91803825  0.35994177  0.97227872     0.16500
F1426       F  0.88774448  0.33864622  0.61453331    -0.22900
H1427       H  0.85422391  0.38996168  0.60614126     0.18300
C1428       C  0.80573334  0.42006575  0.56026879     0.26300
C1429       C  0.77970764  0.44165617  0.55722905    -0.11400
C1430       C  0.77932475  0.46695744  0.52584724    -0.25500
C1431       C  0.80739587  0.46925778  0.49750700     0.37200
C1432       C  0.83496688  0.45007251  0.50412807    -0.27100
F1433       F  0.80121724  0.39381249  0.58671600    -0.19200
H1434       H  0.75840626  0.43706054  0.57808794     0.16500
F1435       F  0.80834803  0.48719936  0.46075480    -0.22900
H1436       H  0.85623082  0.45533532  0.48381198     0.18300
C1437       C  0.64523428  0.36494307  0.97854620    -0.27000
C1438       C  0.64124817  0.39490357  0.49787106     0.06600
C1439       C  0.61117351  0.40076933  0.52060504     0.26300
C1440       C  0.58804617  0.37591835  0.52510906    -0.11500
C1441       C  0.59603470  0.34310675  0.51463721    -0.25400
C1442       C  0.62396126  0.33915471  0.98750220     0.37100
C1443       C  0.66813143  0.41987041  0.49557760     0.06600
F1444       F  0.60435235  0.42947630  0.54144106    -0.19200
H1445       H  0.56504154  0.38168096  0.54171546     0.16500
F1446       F  0.63016505  0.31047998  0.96623573    -0.22900
H1447       H  0.66490930  0.36041138  0.95495429     0.18300
C1448       C  0.70095796  0.41027585  0.49058708     0.26300
C1449       C  0.72563457  0.43306672  0.49412148    -0.11400
C1450       C  0.71932385  0.46537118  0.50910953    -0.25500
C1451       C  0.68648927  0.47570330  0.50991406     0.37200
C1452       C  0.66175043  0.45357895  0.50137691    -0.27100
F1453       F  0.71016020  0.37852731  0.48550894    -0.19200
H1454       H  0.74992683  0.42394091  0.48775337     0.16500
F1455       F  0.67749218  0.50610023  0.52402822    -0.22900
H1456       H  0.63742225  0.46313751  0.50140553     0.18300
C1457       C  0.65727519  0.17039220  0.52125796    -0.27000
C1458       C  0.66188431  0.20338465  0.51087191     0.06600
C1459       C  0.69265385  0.21441664  0.99567346     0.26300
C1460       C  0.71910619  0.19348514  0.99721651    -0.11500
C1461       C  0.71594970  0.16117312  0.51474747    -0.25400
C1462       C  0.68384303  0.14910686  0.52202890     0.37100
C1463       C  0.63609278  0.22779855  0.51951090     0.06600
F1464       F  0.69730578  0.24565007  0.98173134    -0.19200
H1465       H  0.74230058  0.20342722  0.98669107     0.16500
F1466       F  0.67830145  0.11814200  0.53645656    -0.22900
H1467       H  0.63344894  0.16162678  0.53157889     0.18300
C1468       C  0.60808517  0.22845222  0.49590788     0.26300
C1469       C  0.58760121  0.25570317  0.49856212    -0.11400
C1470       C  0.59317878  0.28207409  0.52749085    -0.25500
C1471       C  0.62046374  0.27942900  0.55357620     0.37200
C1472       C  0.64154860  0.25294673  0.54913084    -0.27100
F1473       F  0.60113011  0.20356038  0.46866486    -0.19200
H1474       H  0.56888476  0.25585594  0.47564492     0.16500
F1475       F  0.62866566  0.30396067  0.58075630    -0.22900
H1476       H  0.66308732  0.25267191  0.56783370     0.18300
C1477       C  0.80522920  0.21159670  0.55155218    -0.27000
C1478       C  0.83025190  0.20826905  0.51962117     0.06600
C1479       C  0.82903919  0.18247215  0.99088429     0.26300
C1480       C  0.80235114  0.16128449  0.99156478    -0.11500
C1481       C  0.77704618  0.16343792  0.52374027    -0.25400
C1482       C  0.77930758  0.18982755  0.55386305     0.37100
C1483       C  0.85566959  0.23405348  0.51604502     0.06600
F1484       F  0.85347688  0.17757302  0.96070974    -0.19200
H1485       H  0.80187685  0.14415759  0.96497076     0.16500
F1486       F  0.75529559  0.19611883  0.58433969    -0.22900
H1487       H  0.80545967  0.23170162  0.57467419     0.18300
C1488       C  0.84650218  0.26706501  0.51444614     0.26300
C1489       C  0.86917376  0.29191879  0.51887412    -0.11400
C1490       C  0.90220456  0.28508632  0.52565856    -0.25500
C1491       C  0.91164521  0.25143620  0.52259015     0.37200
C1492       C  0.88859600  0.22649089  0.51824181    -0.27100
F1493       F  0.81506555  0.27544188  0.50991045    -0.19200
H1494       H  0.85972853  0.31654333  0.51815411     0.16500
F1495       F  0.94258262  0.24206829  0.52877137    -0.22900
H1496       H  0.89630734  0.20114033  0.51919485     0.18300
C1497       C  0.77898811  0.49836232  0.72646074    -0.27000
C1498       C  0.75120480  0.01289968  0.71095143     0.06600
C1499       C  0.72688347  0.02347372  0.74111150     0.26300
C1500       C  0.73075542  0.02021666  0.78585572    -0.11500
C1501       C  0.75700688  0.00235744  0.80197963    -0.25400
C1502       C  0.78158427  0.49194320  0.77076694     0.37100
C1503       C  0.74620884  0.01252499  0.66340386     0.06600
F1504       F  0.69824658  0.03450886  0.72725372    -0.19200
H1505       H  0.71099360  0.02809690  0.80786349     0.16500
F1506       F  0.80617041  0.47187907  0.78063335    -0.22900
H1507       H  0.79747747  0.48880749  0.70361706     0.18300
C1508       C  0.76970360  0.02481581  0.63349856     0.26300
C1509       C  0.76667591  0.02043418  0.58874696    -0.11400
C1510       C  0.74192390  0.00072960  0.57226227    -0.25500
C1511       C  0.71822084  0.48843430  0.60320578     0.37200
C1512       C  0.71996484  0.49542740  0.64760132    -0.27100
F1513       F  0.79691840  0.03887738  0.64767684    -0.19200
H1514       H  0.78600506  0.02944424  0.56701028     0.16500
F1515       F  0.69558889  0.46626309  0.59283842    -0.22900
H1516       H  0.70228031  0.48449746  0.67027126     0.18300
C1517       C  0.96695363  0.33171473  0.64552377    -0.27000
C1518       C  0.95595060  0.30601173  0.67237798     0.06600
C1519       C  0.93986273  0.27976467  0.65391684     0.26300
C1520       C  0.93170577  0.28093672  0.61050498    -0.11500
C1521       C  0.94100305  0.30753143  0.58310193    -0.25400
C1522       C  0.96063360  0.33203824  0.60123664     0.37100
C1523       C  0.95316818  0.31067451  0.72005162     0.06600
F1524       F  0.92834293  0.25485418  0.67927861    -0.19200
H1525       H  0.91558039  0.26197280  0.60072803     0.16500
F1526       F  0.97028436  0.35860426  0.57774970    -0.22900
H1527       H  0.97893158  0.35256275  0.65944113     0.18300
C1528       C  0.96721877  0.28927170  0.74932063     0.26300
C1529       C  0.96058854  0.29288814  0.79431270    -0.11400
C1530       C  0.93804273  0.31644569  0.81123391    -0.25500
C1531       C  0.92226847  0.33595202  0.78009720     0.37200
C1532       C  0.93124594  0.33420655  0.73607192    -0.27100
F1533       F  0.98681617  0.26454366  0.73444043    -0.19200
H1534       H  0.97162805  0.27569565  0.81574946     0.16500
F1535       F  0.89488858  0.35331104  0.78981283    -0.22900
H1536       H  0.91838425  0.34925237  0.71361233     0.18300
C1537       C  0.85441457  0.36748961  0.90627426    -0.27000
C1538       C  0.85954363  0.39705616  0.88358139     0.06600
C1539       C  0.89058402  0.40191453  0.86319834     0.26300
C1540       C  0.91375859  0.37678713  0.86233887    -0.11500
C1541       C  0.90508429  0.34472916  0.87519822    -0.25400
C1542       C  0.87635085  0.34155727  0.90175761     0.37100
C1543       C  0.83245340  0.42163030  0.88094143     0.06600
F1544       F  0.89812702  0.42948322  0.84057234    -0.19200
H1545       H  0.93691034  0.38109962  0.84542143     0.16500
F1546       F  0.86931971  0.31381290  0.92429445    -0.22900
H1547       H  0.83336022  0.36411256  0.92791981     0.18300
C1548       C  0.79984580  0.41153060  0.88281915     0.26300
C1549       C  0.77495299  0.43392505  0.87766834    -0.11400
C1550       C  0.78101415  0.46649378  0.86389625    -0.25500
C1551       C  0.81374604  0.47694980  0.86413615     0.37200
C1552       C  0.83853591  0.45521123  0.87430886    -0.27100
F1553       F  0.79132716  0.37958034  0.88690970    -0.19200
H1554       H  0.75082240  0.42428633  0.88263002     0.16500
F1555       F  0.82261924  0.50739144  0.85067323    -0.22900
H1556       H  0.86266923  0.46499301  0.87553549     0.18300
C1557       C  0.56736559  0.28652746  0.73190525    -0.27000
C1558       C  0.54562933  0.30945427  0.71693049     0.06600
C1559       C  0.53073244  0.33173400  0.74639412     0.26300
C1560       C  0.53748415  0.33071969  0.79047330    -0.11500
C1561       C  0.56156586  0.30953671  0.80566206    -0.25400
C1562       C  0.57666361  0.28743991  0.77470311     0.37100
C1563       C  0.54580705  0.31471776  0.66967491     0.06600
F1564       F  0.51117330  0.35571261  0.73213536    -0.19200
H1565       H  0.52624225  0.34898935  0.81190343     0.16500
F1566       F  0.60357127  0.26989479  0.78251477    -0.22900
H1567       H  0.58035092  0.27044465  0.70891340     0.18300
C1568       C  0.56550109  0.33945770  0.65215229     0.26300
C1569       C  0.57354332  0.34004684  0.60781535    -0.11400
C1570       C  0.56061692  0.31718233  0.57843254    -0.25500
C1571       C  0.53969871  0.29284550  0.59680400     0.37200
C1572       C  0.53316503  0.29127451  0.64188131    -0.27100
F1573       F  0.58026564  0.36081632  0.67873398    -0.19200
H1574       H  0.59265389  0.35674374  0.59847979     0.16500
F1575       F  0.52803239  0.26850381  0.57192547    -0.22900
H1576       H  0.51915282  0.27101390  0.65527086     0.18300
C1577       C  0.61956321  0.39549960  0.88552126    -0.27000
C1578       C  0.63577555  0.40524803  0.84663085     0.06600
C1579       C  0.62719030  0.38961005  0.80793919     0.26300
C1580       C  0.60668617  0.36241957  0.80923798    -0.11500
C1581       C  0.59195348  0.35087844  0.84882512    -0.25400
C1582       C  0.59786381  0.36925071  0.88664194     0.37100
C1583       C  0.66380804  0.42863876  0.84709286     0.06600
F1584       F  0.63913123  0.39998908  0.76851771    -0.19200
H1585       H  0.60354886  0.34992215  0.77871536     0.16500
F1586       F  0.58402177  0.36101172  0.92553566    -0.22900
H1587       H  0.62476630  0.40698173  0.91594711     0.18300
C1588       C  0.66584714  0.45399999  0.87818841     0.26300
C1589       C  0.69423089  0.47255500  0.88091654    -0.11400
C1590       C  0.72060657  0.46892017  0.85003410    -0.25500
C1591       C  0.71783821  0.44354059  0.81862200     0.37200
C1592       C  0.69066627  0.42350060  0.81824195    -0.27900
F1593       F  0.64045003  0.46129208  0.90614613    -0.19200
H1594       H  0.69498729  0.48871323  0.90850796     0.16500
F1595       F  0.74275141  0.43614988  0.78992632    -0.22900
H1596       H  0.69145000  0.40302580  0.79578455     0.18300
C1597       C  0.77203655  0.10790630  0.63745060    -0.27000
C1598       C  0.74731756  0.11915283  0.66661249     0.06600
C1599       C  0.72055666  0.13486126  0.65000595     0.26300
C1600       C  0.71917592  0.14022897  0.60547677    -0.11500
C1601       C  0.74381548  0.12896720  0.57515320    -0.25400
C1602       C  0.76995170  0.11164746  0.59239255     0.37100
C1603       C  0.75188994  0.11965812  0.71415215     0.06600
F1604       F  0.69743971  0.14863846  0.67718947    -0.19200
H1605       H  0.70003156  0.15633034  0.59654687     0.16500
F1606       F  0.79533530  0.10143704  0.56614972    -0.22900
H1607       H  0.79385014  0.09765455  0.64984850     0.18300
C1608       C  0.72784558  0.10874446  0.74432783     0.26300
C1609       C  0.73115972  0.11327621  0.78902700    -0.11400
C1610       C  0.75691840  0.13176214  0.80504102    -0.25500
C1611       C  0.78062297  0.14344963  0.77352537     0.37200
C1612       C  0.77867490  0.13594737  0.72945483    -0.27100
F1613       F  0.69995792  0.09597039  0.73049790    -0.19200
H1614       H  0.71171805  0.10502967  0.81107235     0.16500
F1615       F  0.80287133  0.16640279  0.78253991    -0.22900
H1616       H  0.79654637  0.14620038  0.70650999     0.18300
C1617       C  0.61356063  0.23089445  0.86882280    -0.27000
C1618       C  0.64638996  0.23852431  0.87066274     0.06600
C1619       C  0.65541253  0.27156617  0.87316852     0.26300
C1620       C  0.63240328  0.29648502  0.87015310    -0.11500
C1621       C  0.59940475  0.28941136  0.86406136    -0.25400
C1622       C  0.59032626  0.25569600  0.86548776     0.37100
C1623       C  0.67149809  0.21247951  0.86519350     0.06600
F1624       F  0.68691821  0.27985878  0.87687542    -0.19200
H1625       H  0.64144037  0.32124923  0.87050755     0.16500
F1626       F  0.55989273  0.24619377  0.85680082    -0.22900
H1627       H  0.60610310  0.20555136  0.86645861     0.18300
C1628       C  0.67190763  0.18505895  0.89236360     0.26300
C1629       C  0.69769091  0.16274549  0.88938131    -0.11400
C1630       C  0.72285580  0.16551191  0.85664505    -0.25500
C1631       C  0.72093666  0.19267448  0.82792270     0.37200
C1632       C  0.69591599  0.21558266  0.83250816    -0.27100
F1633       F  0.64800099  0.18035327  0.92312557    -0.19200
H1634       H  0.69804798  0.14492558  0.91498129     0.16500
F1635       F  0.74469057  0.19890814  0.79725115    -0.22900
H1636       H  0.69592445  0.23631366  0.81060684     0.18300
C1637       C  0.80689400  0.21506211  0.89122074    -0.27000
C1638       C  0.83738619  0.20451759  0.87573027     0.06600
C1639       C  0.84199004  0.17174115  0.86339211     0.26300
C1640       C  0.81519524  0.15104460  0.86106683    -0.11500
C1641       C  0.78328140  0.16340481  0.86834215    -0.25400
C1642       C  0.78021245  0.19474084  0.88873100     0.37100
C1643       C  0.86290136  0.22911495  0.86908305     0.06600
F1644       F  0.87179763  0.16059901  0.85009239    -0.19200
H1645       H  0.81919367  0.12662203  0.84796400     0.16500
F1646       F  0.75177610  0.20669754  0.90582522    -0.22900
H1647       H  0.80352726  0.23978867  0.90369810     0.18300
C1648       C  0.85860527  0.25418642  0.83922756     0.26300
C1649       C  0.87982307  0.28044797  0.83694523    -0.11400
C1650       C  0.90621224  0.28298993  0.86441141    -0.25500
C1651       C  0.91011079  0.25697004  0.89451398     0.37200
C1652       C  0.88909678  0.23023856  0.89579035    -0.27100
F1653       F  0.83308396  0.25379390  0.81309755    -0.19200
H1654       H  0.87454360  0.29967562  0.81445696     0.16500
F1655       F  0.93168362  0.25755524  0.92580198    -0.22900
H1656       H  0.89240230  0.21125967  0.91953208     0.18300
C1657       C  0.75397808  0.64259769  0.35361020    -0.01300
C1658       C  0.57497254  0.81607146  0.35114830    -0.01300
C1659       C  0.92680947  0.81418301  0.36031337    -0.01300
C1660       C  0.75300060  0.98901725  0.34943963    -0.01300
C1661       C  0.74612504  0.64117861  0.02704413    -0.01300
C1662       C  0.57308828  0.81491938  0.03001463    -0.01300
C1663       C  0.92638625  0.81356741  0.03799890    -0.01300
C1664       C  0.74739762  0.98843245  0.02451789    -0.01300
O1665       O  0.97378549  0.79024109  0.39502759    -0.70500
O1666       O  0.52788633  0.79000916  0.49198976    -0.70800
O1667       O  0.96383883  0.78904603  0.48255743    -0.70600
O1668       O  0.53788916  0.79062804  0.40518595    -0.70600
O1669       O  0.52997384  0.84227481  0.39501942    -0.70600
O1670       O  0.97030000  0.84064801  0.49468970    -0.70600
O1671       O  0.53575499  0.84166917  0.48195053    -0.70600
O1672       O  0.96417628  0.84139138  0.40835374    -0.70700
V1673       V  0.00081880  0.79066267  0.44368483     1.35200
V1674       V  0.00008360  0.84100136  0.44492179     1.35200
C1675       C  0.95653525  0.81528954  0.38877328     0.78700
C1676       C  0.54403933  0.81537018  0.50027371     0.78700
C1677       C  0.95488677  0.81440303  0.50354765     0.78600
C1678       C  0.54613344  0.81647084  0.38517660     0.78600
O1679       O  0.77461789  0.59759337  0.48315718    -0.70500
O1680       O  0.77720766  0.53137486  0.39507390    -0.70800
O1681       O  0.77759793  0.59848910  0.39600674    -0.70600
O1682       O  0.77480864  0.53186342  0.48231308    -0.70600
O1683       O  0.72299717  0.53089904  0.48020713    -0.70600
O1684       O  0.72555641  0.59851755  0.39484248    -0.70600
O1685       O  0.72534210  0.53253197  0.39326889    -0.70600
O1686       O  0.72262631  0.59805182  0.48188145    -0.70700
V1687       V  0.77510653  0.56482447  0.43877338     1.35200
V1688       V  0.72507612  0.56499853  0.43787311     1.35200
C1689       C  0.74807570  0.61052218  0.49618544     0.78700
C1690       C  0.75166842  0.51906863  0.38071307     0.78700
C1691       C  0.75210691  0.61160271  0.38262503     0.78600
C1692       C  0.74856433  0.51827440  0.49415083     0.78600
C1693       C  0.86739382  0.88366399  0.07620123    -0.27000
C1694       C  0.86295759  0.90108951  0.03753609     0.06600
C1695       C  0.88361226  0.89255287  0.50130564     0.26300
C1696       C  0.90470474  0.86570317  0.50217446    -0.11500
C1697       C  0.90774594  0.84708050  0.04002142    -0.25400
C1698       C  0.88829036  0.85665426  0.07728803     0.37100
C1699       C  0.83479507  0.92475331  0.03443901     0.06600
F1700       F  0.88348268  0.90973158  0.46400059    -0.19200
H1701       H  0.91748536  0.85909647  0.47198533     0.16500
F1702       F  0.88743446  0.83877201  0.11436422    -0.22900
H1703       H  0.85389265  0.89013015  0.10595850     0.18300
C1704       C  0.80569160  0.92008460  0.05949932     0.26300
C1705       C  0.77966530  0.94164980  0.05647285    -0.11400
C1706       C  0.77943619  0.96722267  0.02546790    -0.25500
C1707       C  0.80766504  0.96981629  0.99747422     0.37200
C1708       C  0.83523182  0.95063726  0.00417690    -0.27100
F1709       F  0.80105079  0.89355252  0.08542062    -0.19200
H1710       H  0.75826662  0.93687090  0.07706053     0.16500
F1711       F  0.80885223  0.98815108  0.96106052    -0.22900
H1712       H  0.85661742  0.95610459  0.98421325     0.18300
C1713       C  0.64574693  0.86387387  0.47833187    -0.27000
C1714       C  0.64088618  0.89577028  0.99870376     0.06600
C1715       C  0.61095774  0.90141321  0.02191816     0.26300
C1716       C  0.58785584  0.87650216  0.02627962    -0.11500
C1717       C  0.59579119  0.84379899  0.01506780    -0.25400
C1718       C  0.62441924  0.83816512  0.48752938     0.37100
C1719       C  0.66779867  0.92072291  0.99647105     0.06600
F1720       F  0.60427602  0.92993466  0.04328643    -0.19200
H1721       H  0.56495529  0.88208057  0.04327536     0.16500
F1722       F  0.63081594  0.80927595  0.46689064    -0.22900
H1723       H  0.66560138  0.85910294  0.45510078     0.18300
C1724       C  0.70057922  0.91108404  0.99076122     0.26300
C1725       C  0.72535655  0.93379271  0.99397457    -0.11400
C1726       C  0.71928658  0.96600632  0.00942985    -0.25500
C1727       C  0.68647001  0.97643713  0.01101638     0.37200
C1728       C  0.66154336  0.95441292  0.00284765    -0.27100
F1729       F  0.70967872  0.87933876  0.98527931    -0.19200
H1730       H  0.74958124  0.92466808  0.98699188     0.16500
F1731       F  0.67777323  0.00683829  0.02546344    -0.22900
H1732       H  0.63721445  0.96402236  0.00354051     0.18300
C1733       C  0.65722709  0.67096506  0.02110217    -0.27000
C1734       C  0.66194234  0.70390967  0.01053149     0.06600
C1735       C  0.69258035  0.71403713  0.49615554     0.26300
C1736       C  0.71909223  0.69314914  0.49750396    -0.11500
C1737       C  0.71586253  0.66159507  0.01469864    -0.25400
C1738       C  0.68372756  0.64961058  0.02196924     0.37100
C1739       C  0.63627020  0.72843293  0.01916670     0.06600
F1740       F  0.69715662  0.74535302  0.48250358    -0.19200
H1741       H  0.74225212  0.70319127  0.48702256     0.16500
F1742       F  0.67809292  0.61868727  0.03649637    -0.22900
H1743       H  0.63338009  0.66230162  0.03150369     0.18300
C1744       C  0.60800142  0.72885861  0.99610789     0.26300
C1745       C  0.58748648  0.75608164  0.99883138    -0.11400
C1746       C  0.59332833  0.78266078  0.02731174    -0.25500
C1747       C  0.62091919  0.78025425  0.05287409     0.37200
C1748       C  0.64201439  0.75380222  0.04833034    -0.27100
F1749       F  0.60079127  0.70373112  0.96936940    -0.19200
H1750       H  0.56841218  0.75595102  0.97642217     0.16500
F1751       F  0.62937657  0.80497183  0.07960140    -0.22900
H1752       H  0.66375530  0.75369140  0.06664041     0.18300
C1753       C  0.80485654  0.71217262  0.05192130    -0.27000
C1754       C  0.82992085  0.70892504  0.02002501     0.06600
C1755       C  0.82925861  0.68181532  0.49049512     0.26300
C1756       C  0.80248994  0.66071016  0.49122887    -0.11500
C1757       C  0.77687981  0.66389106  0.02406572    -0.25400
C1758       C  0.77901334  0.69029434  0.05419964     0.37100
C1759       C  0.85533883  0.73471320  0.01649143     0.06600
F1760       F  0.85366515  0.67683325  0.46029767    -0.19200
H1761       H  0.80193782  0.64352009  0.46471031     0.16500
F1762       F  0.75493818  0.69650714  0.08461631    -0.22900
H1763       H  0.80500155  0.73227527  0.07505398     0.18300
C1764       C  0.84622117  0.76774846  0.01513235     0.26300
C1765       C  0.86899885  0.79253680  0.01929778    -0.11400
C1766       C  0.90207552  0.78561206  0.02567905    -0.25500
C1767       C  0.91142635  0.75195095  0.02234664     0.37200
C1768       C  0.88828356  0.72707768  0.01820722    -0.27100
F1769       F  0.81476073  0.77621762  0.01101313    -0.19200
H1770       H  0.85960525  0.81718521  0.01870503     0.16500
F1771       F  0.94238182  0.74247498  0.02817016    -0.22900
H1772       H  0.89596170  0.70170971  0.01894846     0.18300
C1773       C  0.78004871  0.99842244  0.22660673    -0.27000
C1774       C  0.75246938  0.51325435  0.21095132     0.06600
C1775       C  0.72808939  0.52392145  0.24095272     0.26300
C1776       C  0.73161982  0.52035300  0.28570412    -0.11500
C1777       C  0.75756386  0.50211927  0.30193560    -0.25400
C1778       C  0.78227955  0.99168965  0.27089960     0.37100
C1779       C  0.74745324  0.51274887  0.16343191     0.06600
F1780       F  0.69962311  0.53520043  0.22686396    -0.19200
H1781       H  0.71178317  0.52827478  0.30756067     0.16500
F1782       F  0.80658338  0.97129262  0.28085108    -0.22900
H1783       H  0.79856623  0.98880333  0.20385437     0.18300
C1784       C  0.77084416  0.52497608  0.13333184     0.26300
C1785       C  0.76751255  0.52067379  0.08860866    -0.11400
C1786       C  0.74257894  0.50106597  0.07236483    -0.25500
C1787       C  0.71914616  0.98863964  0.10355850     0.37200
C1788       C  0.72114825  0.99561547  0.14788996    -0.27100
F1789       F  0.79818618  0.53895106  0.14725493    -0.19200
H1790       H  0.78671853  0.52968312  0.06667482     0.16500
F1791       F  0.69658837  0.96630187  0.09348626    -0.22900
H1792       H  0.70360368  0.98464776  0.17072457     0.18300
C1793       C  0.96702711  0.83170354  0.14564019    -0.27000
C1794       C  0.95612363  0.80584347  0.17228943     0.06600
C1795       C  0.94007381  0.77965201  0.15364683     0.26300
C1796       C  0.93180186  0.78105441  0.11030027    -0.11500
C1797       C  0.94097797  0.80781665  0.08311750    -0.25400
C1798       C  0.96059048  0.83226510  0.10140324     0.37100
C1799       C  0.95330406  0.81033621  0.21997657     0.06600
F1800       F  0.92869930  0.75455838  0.17879573    -0.19200
H1801       H  0.91571667  0.76209242  0.10042064     0.16500
F1802       F  0.97012087  0.85898323  0.07814571    -0.22900
H1803       H  0.97898045  0.85250597  0.15970909     0.18300
C1804       C  0.96731666  0.78883425  0.24915436     0.26300
C1805       C  0.96071474  0.79238603  0.29415390    -0.11400
C1806       C  0.93814857  0.81589864  0.31114502    -0.25500
C1807       C  0.92238243  0.83547957  0.28008994     0.37200
C1808       C  0.93139007  0.83384802  0.23607724    -0.27100
F1809       F  0.98684450  0.76407836  0.23418513    -0.19200
H1810       H  0.97174040  0.77514479  0.31554364     0.16500
F1811       F  0.89492934  0.85271328  0.28983028    -0.22900
H1812       H  0.91853390  0.84894755  0.21367225     0.18300
C1813       C  0.85383943  0.86622327  0.40557897    -0.27000
C1814       C  0.85912092  0.89597727  0.38337454     0.06600
C1815       C  0.89030253  0.90099750  0.36349262     0.26300
C1816       C  0.91351798  0.87591705  0.36269236    -0.11500
C1817       C  0.90484597  0.84376161  0.37510533    -0.25400
C1818       C  0.87584232  0.84033534  0.40106323     0.37100
C1819       C  0.83209356  0.92064567  0.38081348     0.06600
F1820       F  0.89799974  0.92872535  0.34130634    -0.19200
H1821       H  0.93677130  0.88038174  0.34612637     0.16500
F1822       F  0.86859137  0.81240001  0.42305839    -0.22900
H1823       H  0.83261083  0.86265307  0.42683818     0.18300
C1824       C  0.79945420  0.91064992  0.38218706     0.26300
C1825       C  0.77466285  0.93317495  0.37701160    -0.11400
C1826       C  0.78091182  0.96583634  0.36378931    -0.25500
C1827       C  0.81366960  0.97615243  0.36450235     0.37200
C1828       C  0.83830345  0.95425684  0.37472537    -0.27100
F1829       F  0.79082439  0.87870195  0.38579193    -0.19200
H1830       H  0.75048021  0.92357992  0.38148133     0.16500
F1831       F  0.82277048  0.00660544  0.35136990    -0.22900
H1832       H  0.86243682  0.96395882  0.37639356     0.18300
C1833       C  0.56719250  0.78553791  0.23210956    -0.27000
C1834       C  0.54563894  0.80861942  0.21706373     0.06600
C1835       C  0.53086193  0.83101688  0.24645470     0.26300
C1836       C  0.53760534  0.83003012  0.29051503    -0.11500
C1837       C  0.56163433  0.80879959  0.30573409    -0.25400
C1838       C  0.57654047  0.78649706  0.27489115     0.37100
C1839       C  0.54604444  0.81405093  0.16985357     0.06600
F1840       F  0.51150164  0.85513437  0.23211068    -0.19200
H1841       H  0.52647790  0.84841348  0.31187373     0.16500
F1842       F  0.60331624  0.76876921  0.28276518    -0.22900
H1843       H  0.58006130  0.76933024  0.20916328     0.18300
C1844       C  0.56597488  0.83871647  0.15265678     0.26300
C1845       C  0.57386970  0.83968068  0.10831255    -0.11400
C1846       C  0.56066279  0.81722850  0.07863455    -0.25500
C1847       C  0.53967187  0.79283462  0.09672970     0.37200
C1848       C  0.53318535  0.79094079  0.14179007    -0.27100
F1849       F  0.58103833  0.85964164  0.17951173    -0.19200
H1850       H  0.59306873  0.85632162  0.09912943     0.16500
F1851       F  0.52782721  0.76875982  0.07157810    -0.22900
H1852       H  0.51901622  0.77070270  0.15493346     0.18300
C1853       C  0.61986702  0.89492540  0.38504032    -0.27000
C1854       C  0.63578174  0.90482352  0.34598965     0.06600
C1855       C  0.62696759  0.88921251  0.30738184     0.26300
C1856       C  0.60651051  0.86196165  0.30886089    -0.11500
C1857       C  0.59204279  0.85033142  0.34858123    -0.25400
C1858       C  0.59817685  0.86865588  0.38634186     0.37100
C1859       C  0.66372347  0.92838216  0.34621474     0.06600
F1860       F  0.63861135  0.89969303  0.26786545    -0.19200
H1861       H  0.60319897  0.84949148  0.27836068     0.16500
F1862       F  0.58459782  0.86027853  0.42533968    -0.22900
H1863       H  0.62529852  0.90631924  0.41543562     0.18300
C1864       C  0.66582037  0.95361343  0.37747494     0.26300
C1865       C  0.69422387  0.97212305  0.38031544    -0.11400
C1866       C  0.72057155  0.96866905  0.34934428    -0.25500
C1867       C  0.71768330  0.94354448  0.31758683     0.37200
C1868       C  0.69047644  0.92351063  0.31707792    -0.27900
F1869       F  0.64045917  0.96078633  0.40554679    -0.19200
H1870       H  0.69503911  0.98804215  0.40813950     0.16500
F1871       F  0.74253379  0.93632151  0.28871746    -0.22900
H1872       H  0.69118837  0.90320175  0.29435902     0.18300
C1873       C  0.77141930  0.60783235  0.13749724    -0.27000
C1874       C  0.74665605  0.61904628  0.16661685     0.06600
C1875       C  0.72001802  0.63495496  0.14998594     0.26300
C1876       C  0.71882366  0.64056076  0.10548600    -0.11500
C1877       C  0.74351119  0.62932072  0.07521928    -0.25400
C1878       C  0.76952954  0.61183969  0.09246830     0.37100
C1879       C  0.75123937  0.61950650  0.21414566     0.06600
F1880       F  0.69688673  0.64873182  0.17714453    -0.19200
H1881       H  0.69979870  0.65681074  0.09655501     0.16500
F1882       F  0.79499733  0.60172903  0.06630306    -0.22900
H1883       H  0.79316282  0.59747762  0.14993999     0.18300
C1884       C  0.72712430  0.60888509  0.24443110     0.26300
C1885       C  0.73067592  0.61325376  0.28911309    -0.11400
C1886       C  0.75672047  0.63139217  0.30498840    -0.25500
C1887       C  0.78038334  0.64295004  0.27333904     0.37200
C1888       C  0.77823846  0.63548992  0.22931562    -0.27100
F1889       F  0.69899252  0.59654706  0.23077028    -0.19200
H1890       H  0.71122571  0.60518831  0.31126975     0.16500
F1891       F  0.80279765  0.66577714  0.28218288    -0.22900
H1892       H  0.79615078  0.64559082  0.20630075     0.18300
C1893       C  0.61392609  0.73046736  0.36943385    -0.27000
C1894       C  0.64672731  0.73820298  0.37136593     0.06600
C1895       C  0.65563363  0.77128475  0.37373301     0.26300
C1896       C  0.63257151  0.79611399  0.37037589    -0.11500
C1897       C  0.59960663  0.78892062  0.36420379    -0.25400
C1898       C  0.59062325  0.75518267  0.36588098     0.37100
C1899       C  0.67193646  0.71223690  0.36594810     0.06600
F1900       F  0.68708948  0.77970303  0.37761168    -0.19200
H1901       H  0.64156081  0.82089513  0.37055981     0.16500
F1902       F  0.56024183  0.74553579  0.35715641    -0.22900
H1903       H  0.60654611  0.70509591  0.36715691     0.18300
C1904       C  0.67230507  0.68467319  0.39288687     0.26300
C1905       C  0.69808310  0.66235711  0.38978420    -0.11400
C1906       C  0.72325683  0.66524181  0.35710048    -0.25500
C1907       C  0.72140925  0.69255314  0.32862629     0.37200
C1908       C  0.69642216  0.71548506  0.33337488    -0.27100
F1909       F  0.64830875  0.67973811  0.42343830    -0.19200
H1910       H  0.69837017  0.64433924  0.41514567     0.16500
F1911       F  0.74514827  0.69881746  0.29794390    -0.22900
H1912       H  0.69645961  0.73629408  0.31160391     0.18300
C1913       C  0.80798313  0.71391844  0.39082509    -0.27000
C1914       C  0.83828089  0.70315434  0.37486287     0.06600
C1915       C  0.84254457  0.67038233  0.36232291     0.26300
C1916       C  0.81555134  0.64992369  0.36031168    -0.11500
C1917       C  0.78378024  0.66256143  0.36804775    -0.25400
C1918       C  0.78111130  0.69383754  0.38863171     0.37100
C1919       C  0.86388788  0.72759772  0.36799515     0.06600
F1920       F  0.87217043  0.65903369  0.34853845    -0.19200
H1921       H  0.81923815  0.62549493  0.34707627     0.16500
F1922       F  0.75288725  0.70594130  0.40622143    -0.22900
H1923       H  0.80491334  0.73863623  0.40345347     0.18300
C1924       C  0.85967789  0.75245968  0.33781465     0.26300
C1925       C  0.88052131  0.77903421  0.33591496    -0.11400
C1926       C  0.90651345  0.78202168  0.36397907    -0.25500
C1927       C  0.91031758  0.75621466  0.39440396     0.37200
C1928       C  0.88966764  0.72919894  0.39536297    -0.27100
F1929       F  0.83446181  0.75164817  0.31117888    -0.19200
H1930       H  0.87525476  0.79812695  0.31321332     0.16500
F1931       F  0.93123786  0.75742673  0.42646058    -0.22900
H1932       H  0.89280299  0.71045322  0.41947509     0.18300
C1933       C  0.75376568  0.64311065  0.85360738    -0.01300
C1934       C  0.57483710  0.81666296  0.85117186    -0.01300
C1935       C  0.92679937  0.81494975  0.86046927    -0.01300
C1936       C  0.75289647  0.98946464  0.84964886    -0.01300
C1937       C  0.74627336  0.64075115  0.52692695    -0.01300
C1938       C  0.57313991  0.81447191  0.52986954    -0.01300
C1939       C  0.92640337  0.81314166  0.53795910    -0.01300
C1940       C  0.74718268  0.98798755  0.52451748    -0.01300
O1941       O  0.97387899  0.79092833  0.89491265    -0.70500
O1942       O  0.52773138  0.79052086  0.99218281    -0.70800
O1943       O  0.96369275  0.78955458  0.98238617    -0.70600
O1944       O  0.53793466  0.79121193  0.90540440    -0.70600
O1945       O  0.52978181  0.84279112  0.89500639    -0.70600
O1946       O  0.97044471  0.84104245  0.99502363    -0.70600
O1947       O  0.53582658  0.84211740  0.98195444    -0.70600
O1948       O  0.96407911  0.84196788  0.90873877    -0.70700
V1949       V  0.00078264  0.79120679  0.94372452     1.35200
V1950       V  0.00006984  0.84150989  0.94509908     1.35200
C1951       C  0.95653557  0.81595364  0.88889667     0.78700
C1952       C  0.54398573  0.81583489  0.00040861     0.78700
C1953       C  0.95488000  0.81483791  0.00362194     0.78600
C1954       C  0.54602048  0.81702207  0.88521658     0.78600
O1955       O  0.77456170  0.59825559  0.98297708    -0.70500
O1956       O  0.77714177  0.53178245  0.89527357    -0.70800
O1957       O  0.77747728  0.59891243  0.89579881    -0.70600
O1958       O  0.77484262  0.53253068  0.98250570    -0.70600
O1959       O  0.72305413  0.53116391  0.98006083    -0.70600
O1960       O  0.72541211  0.59916720  0.89522171    -0.70600
O1961       O  0.72529329  0.53318275  0.89313013    -0.70600
O1962       O  0.72254504  0.59830890  0.98224869    -0.70700
V1963       V  0.77505593  0.56536478  0.93877684     1.35200
V1964       V  0.72502150  0.56545761  0.93798253     1.35200
C1965       C  0.74799017  0.61097597  0.99628069     0.78700
C1966       C  0.75159854  0.51959824  0.88075494     0.78700
C1967       C  0.75195025  0.61214725  0.88271265     0.78600
C1968       C  0.74866439  0.51874354  0.99418256     0.78600
C1969       C  0.86747445  0.88333530  0.57626125    -0.27000
C1970       C  0.86276862  0.90059349  0.53754761     0.06600
C1971       C  0.88408961  0.89329023  0.00151621     0.26300
C1972       C  0.90510043  0.86639228  0.00240206    -0.11500
C1973       C  0.90765119  0.84660662  0.53992077    -0.25400
C1974       C  0.88837269  0.85632230  0.57729876     0.37100
C1975       C  0.83466583  0.92439231  0.53468749     0.06600
F1976       F  0.88429738  0.91072238  0.96438236    -0.19200
H1977       H  0.91803830  0.85993755  0.97227950     0.16500
F1978       F  0.88774297  0.83864302  0.61453676    -0.22900
H1979       H  0.85422166  0.88995845  0.60614471     0.18300
C1980       C  0.80573244  0.92006508  0.56027000     0.26300
C1981       C  0.77970725  0.94165595  0.55722807    -0.11400
C1982       C  0.77932616  0.96695753  0.52584640    -0.25500
C1983       C  0.80739915  0.96925842  0.49750955     0.37200
C1984       C  0.83496921  0.95007218  0.50413259    -0.27100
F1985       F  0.80121508  0.89381212  0.58671739    -0.19200
H1986       H  0.75840484  0.93706052  0.57808525     0.16500
F1987       F  0.80835462  0.98720211  0.46075913    -0.22900
H1988       H  0.85623463  0.95533501  0.48381899     0.18300
C1989       C  0.64523507  0.86494169  0.97854211    -0.27000
C1990       C  0.64125010  0.89490403  0.49786740     0.06600
C1991       C  0.61117565  0.90077039  0.52060179     0.26300
C1992       C  0.58804825  0.87591960  0.52510732    -0.11500
C1993       C  0.59603611  0.84310787  0.51463558    -0.25400
C1994       C  0.62396119  0.83915415  0.98749911     0.37100
C1995       C  0.66813346  0.91987072  0.49557278     0.06600
F1996       F  0.60435478  0.92947796  0.54143642    -0.19200
H1997       H  0.56504364  0.88168269  0.54171428     0.16500
F1998       F  0.63016417  0.81047867  0.96623414    -0.22900
H1999       H  0.66491041  0.86040890  0.95495082     0.18300
C2000       C  0.70096002  0.91027606  0.49058292     0.26300
C2001       C  0.72563663  0.93306697  0.49411774    -0.11400
C2002       C  0.71932571  0.96537153  0.50910536    -0.25500
C2003       C  0.68649114  0.97570372  0.50990830     0.37200
C2004       C  0.66175251  0.95357931  0.50137081    -0.27100
F2005       F  0.71016216  0.87852747  0.48550507    -0.19200
H2006       H  0.74992897  0.92394117  0.48775040     0.16500
F2007       F  0.67749367  0.00610073  0.52402162    -0.22900
H2008       H  0.63742412  0.96313796  0.50139844     0.18300
C2009       C  0.65727381  0.67039311  0.52125465    -0.27000
C2010       C  0.66188407  0.70338553  0.51086958     0.06600
C2011       C  0.69265225  0.71441795  0.99567736     0.26300
C2012       C  0.71910426  0.69348622  0.99722068    -0.11500
C2013       C  0.71594820  0.66117281  0.51474881    -0.25400
C2014       C  0.68384102  0.64910718  0.52202730     0.37100
C2015       C  0.63609299  0.72779990  0.51950828     0.06600
F2016       F  0.69730479  0.74565164  0.98173658    -0.19200
H2017       H  0.74229888  0.70342839  0.98669665     0.16500
F2018       F  0.67829801  0.61814231  0.53645396    -0.22900
H2019       H  0.63344690  0.66162808  0.53157380     0.18300
C2020       C  0.60808507  0.72845362  0.49590591     0.26300
C2021       C  0.58760123  0.75570458  0.49856059    -0.11400
C2022       C  0.59317917  0.78207543  0.52748927    -0.25500
C2023       C  0.62046431  0.77943015  0.55357427     0.37200
C2024       C  0.64154909  0.75294789  0.54912838    -0.27100
F2025       F  0.60112950  0.70356179  0.46866318    -0.19200
H2026       H  0.56888455  0.75585739  0.47564368     0.16500
F2027       F  0.62866666  0.80396175  0.58075422    -0.22900
H2028       H  0.66308791  0.75267293  0.56783101     0.18300
C2029       C  0.80522826  0.71159272  0.55156122    -0.27000
C2030       C  0.83025147  0.70826533  0.51963077     0.06600
C2031       C  0.82903623  0.68247225  0.99088997     0.26300
C2032       C  0.80234803  0.66128483  0.99156953    -0.11500
C2033       C  0.77704436  0.66343577  0.52374559    -0.25400
C2034       C  0.77930581  0.68982445  0.55386973     0.37100
C2035       C  0.85566907  0.73404995  0.51605515     0.06600
F2036       F  0.85347339  0.67757426  0.96071430    -0.19200
H2037       H  0.80187335  0.64415845  0.96497486     0.16500
F2038       F  0.75529306  0.69611581  0.58434532    -0.22900
H2039       H  0.80545874  0.73169697  0.57468403     0.18300
C2040       C  0.84650135  0.76706142  0.51445627     0.26300
C2041       C  0.86917302  0.79191541  0.51888158    -0.11400
C2042       C  0.90220414  0.78508340  0.52566435    -0.25500
C2043       C  0.91164498  0.75143328  0.52259634     0.37200
C2044       C  0.88859570  0.72648771  0.51825010    -0.27100
F2045       F  0.81506443  0.77543803  0.50992259    -0.19200
H2046       H  0.85972749  0.81653999  0.51816100     0.16500
F2047       F  0.94258276  0.74206581  0.52877593    -0.22900
H2048       H  0.89630740  0.70113691  0.51920295     0.18300
C2049       C  0.77898781  0.99836154  0.72645676    -0.27000
C2050       C  0.75120489  0.51289982  0.71095512     0.06600
C2051       C  0.72688322  0.52347343  0.74111503     0.26300
C2052       C  0.73075490  0.52021624  0.78585930    -0.11500
C2053       C  0.75700657  0.50235748  0.80198343    -0.25400
C2054       C  0.78158411  0.99194243  0.77076293     0.37100
C2055       C  0.74620892  0.51252450  0.66340750     0.06600
F2056       F  0.69824630  0.53450822  0.72725698    -0.19200
H2057       H  0.71099274  0.52809603  0.80786699     0.16500
F2058       F  0.80616973  0.97187755  0.78062919    -0.22900
H2059       H  0.79747681  0.98880632  0.70361292     0.18300
C2060       C  0.76970351  0.52481514  0.63350175     0.26300
C2061       C  0.76667546  0.52043333  0.58875017    -0.11400
C2062       C  0.74192332  0.50072868  0.57226591    -0.25500
C2063       C  0.71822069  0.98843581  0.60320152     0.37200
C2064       C  0.71996451  0.99542855  0.64759720    -0.27100
F2065       F  0.79691839  0.53887686  0.64767956    -0.19200
H2066       H  0.78600430  0.52944350  0.56701311     0.16500
F2067       F  0.69558798  0.96626562  0.59283349    -0.22900
H2068       H  0.70227962  0.98449888  0.67026676     0.18300
C2069       C  0.96695371  0.83171451  0.64552706    -0.27000
C2070       C  0.95595130  0.80601160  0.67238187     0.06600
C2071       C  0.93986412  0.77976385  0.65392133     0.26300
C2072       C  0.93170692  0.78093522  0.61050962    -0.11500
C2073       C  0.94100328  0.80752984  0.58310595    -0.25400
C2074       C  0.96063358  0.83203724  0.60123992     0.37100
C2075       C  0.95316890  0.81067458  0.72005545     0.06600
F2076       F  0.92834516  0.75485330  0.67928364    -0.19200
H2077       H  0.91558179  0.76197044  0.60073315     0.16500
F2078       F  0.97028410  0.85860292  0.57775214    -0.22900
H2079       H  0.97893131  0.85256294  0.65944388     0.18300
C2080       C  0.96721920  0.78927147  0.74932438     0.26300
C2081       C  0.96058836  0.79288730  0.79431633    -0.11400
C2082       C  0.93804225  0.81644454  0.81123753    -0.25500
C2083       C  0.92226844  0.83595137  0.78010092     0.37200
C2084       C  0.93124650  0.83420647  0.73607576    -0.27100
F2085       F  0.98681696  0.76454374  0.73444414    -0.19200
H2086       H  0.97162766  0.77569452  0.81575295     0.16500
F2087       F  0.89488841  0.85331020  0.78981636    -0.22900
H2088       H  0.91838501  0.84925253  0.71361613     0.18300
C2089       C  0.85441213  0.86748770  0.90627392    -0.27000
C2090       C  0.85954215  0.89705451  0.88358180     0.06600
C2091       C  0.89058347  0.90191279  0.86320126     0.26300
C2092       C  0.91375793  0.87678532  0.86234340    -0.11500
C2093       C  0.90508307  0.84472727  0.87520157    -0.25400
C2094       C  0.87634839  0.84155519  0.90175848     0.37100
C2095       C  0.83245225  0.92162913  0.88094039     0.06600
F2096       F  0.89812783  0.92948151  0.84057611    -0.19200
H2097       H  0.93691036  0.88109786  0.84542758     0.16500
F2098       F  0.86931607  0.81381059  0.92429430    -0.22900
H2099       H  0.83335712  0.86411055  0.92791846     0.18300
C2100       C  0.79984432  0.91153027  0.88281854     0.26300
C2101       C  0.77495206  0.93392512  0.87766636    -0.11400
C2102       C  0.78101401  0.96649331  0.86389258    -0.25500
C2103       C  0.81374607  0.97694860  0.86413202     0.37200
C2104       C  0.83853539  0.95520983  0.87430611    -0.27100
F2105       F  0.79132460  0.87958045  0.88691113    -0.19200
H2106       H  0.75082131  0.92428721  0.88262871     0.16500
F2107       F  0.82261977  0.00738988  0.85066818    -0.22900
H2108       H  0.86266876  0.96499149  0.87553297     0.18300
C2109       C  0.56736553  0.78652732  0.73190455    -0.27000
C2110       C  0.54562995  0.80945454  0.71692911     0.06600
C2111       C  0.53073301  0.83173450  0.74639237     0.26300
C2112       C  0.53748471  0.83072065  0.79047157    -0.11500
C2113       C  0.56156614  0.80953759  0.80566087    -0.25400
C2114       C  0.57666331  0.78743988  0.77470257     0.37100
C2115       C  0.54580840  0.81471821  0.66967349     0.06600
F2116       F  0.51117397  0.85571302  0.73213311    -0.19200
H2117       H  0.52624298  0.84899077  0.81190134     0.16500
F2118       F  0.60357013  0.76989372  0.78251504    -0.22900
H2119       H  0.58035067  0.77044386  0.70891293     0.18300
C2120       C  0.56550318  0.83945778  0.65215127     0.26300
C2121       C  0.57354483  0.84004771  0.60781411    -0.11400
C2122       C  0.56061776  0.81718384  0.57843099    -0.25500
C2123       C  0.53969908  0.79284725  0.59680216     0.37200
C2124       C  0.53316559  0.79127582  0.64187944    -0.27100
F2125       F  0.58026879  0.86081532  0.67873336    -0.19200
H2126       H  0.59265531  0.85674439  0.59847856     0.16500
F2127       F  0.52803202  0.76850621  0.57192324    -0.22900
H2128       H  0.51915262  0.77101528  0.65526874     0.18300
C2129       C  0.61956281  0.89550175  0.88551885    -0.27000
C2130       C  0.63577542  0.90524955  0.84662835     0.06600
C2131       C  0.62719058  0.88961093  0.80793695     0.26300
C2132       C  0.60668668  0.86242035  0.80923621    -0.11500
C2133       C  0.59195364  0.85087987  0.84882339    -0.25400
C2134       C  0.59786353  0.86925279  0.88663990     0.37100
C2135       C  0.66380797  0.92864007  0.84709010     0.06600
F2136       F  0.63913182  0.89998938  0.76851535    -0.19200
H2137       H  0.60354978  0.84992218  0.77871366     0.16500
F2138       F  0.58402137  0.86101436  0.92553380    -0.22900
H2139       H  0.62476568  0.90698431  0.91594437     0.18300
C2140       C  0.66584697  0.95400192  0.87818473     0.26300
C2141       C  0.69423080  0.97255687  0.88091253    -0.11400
C2142       C  0.72060667  0.96892094  0.85003060    -0.25500
C2143       C  0.71783827  0.94354096  0.81861920     0.37200
C2144       C  0.69066631  0.92350109  0.81823966    -0.27900
F2145       F  0.64044969  0.96129473  0.90614180    -0.19200
H2146       H  0.69498705  0.98871581  0.90850276     0.16500
F2147       F  0.74275145  0.93614969  0.78992377    -0.22900
H2148       H  0.69145009  0.90302594  0.79578317     0.18300
C2149       C  0.77203014  0.60790388  0.63745417    -0.27000
C2150       C  0.74731031  0.61914996  0.66661503     0.06600
C2151       C  0.72054939  0.63485755  0.65000723     0.26300
C2152       C  0.71917014  0.64022595  0.60547795    -0.11500
C2153       C  0.74381093  0.62896508  0.57515558    -0.25400
C2154       C  0.76994658  0.61164521  0.59239607     0.37100
C2155       C  0.75188277  0.61965688  0.71415467     0.06600
F2156       F  0.69743116  0.64863372  0.67718968    -0.19200
H2157       H  0.70002577  0.65632716  0.59654724     0.16500
F2158       F  0.79533112  0.60143539  0.56615450    -0.22900
H2159       H  0.79384369  0.59765285  0.64985305     0.18300
C2160       C  0.72783873  0.60874447  0.74433168     0.26300
C2161       C  0.73115416  0.61327692  0.78903053    -0.11400
C2162       C  0.75691413  0.63176204  0.80504280    -0.25500
C2163       C  0.78061801  0.64344862  0.77352574     0.37200
C2164       C  0.77866847  0.63594590  0.72945565    -0.27100
F2165       F  0.69995049  0.59597037  0.73050360    -0.19200
H2166       H  0.71171298  0.60503133  0.81107683     0.16500
F2167       F  0.80286750  0.66640106  0.78253858    -0.22900
H2168       H  0.79653963  0.64619804  0.70650993     0.18300
C2169       C  0.61356114  0.73089647  0.86882542    -0.27000
C2170       C  0.64639033  0.73852660  0.87066645     0.06600
C2171       C  0.65541266  0.77156856  0.87317147     0.26300
C2172       C  0.63240344  0.79648718  0.87015375    -0.11500
C2173       C  0.59940512  0.78941313  0.86406105    -0.25400
C2174       C  0.59032677  0.75569778  0.86548862     0.37100
C2175       C  0.67149858  0.71248188  0.86519797     0.06600
F2176       F  0.68691810  0.77986150  0.87687991    -0.19200
H2177       H  0.64144036  0.82125131  0.87050765     0.16500
F2178       F  0.55989348  0.74619511  0.85680113    -0.22900
H2179       H  0.60610378  0.70555339  0.86646161     0.18300
C2180       C  0.67190654  0.68506008  0.89236614     0.26300
C2181       C  0.69768906  0.66274568  0.88938304    -0.11400
C2182       C  0.72285493  0.66551306  0.85664842    -0.25500
C2183       C  0.72093742  0.69267694  0.82792803     0.37200
C2184       C  0.69591743  0.71558572  0.83251403    -0.27100
F2185       F  0.64799886  0.68035387  0.92312657    -0.19200
H2186       H  0.69804453  0.64492357  0.91498086     0.16500
F2187       F  0.74469229  0.69891098  0.79725792    -0.22900
H2188       H  0.69592698  0.73631744  0.81061402     0.18300
C2189       C  0.80689495  0.71505934  0.89122428    -0.27000
C2190       C  0.83738649  0.70451496  0.87573117     0.06600
C2191       C  0.84198940  0.67173905  0.86338972     0.26300
C2192       C  0.81519409  0.65104315  0.86106437    -0.11500
C2193       C  0.78328067  0.66340375  0.86834240    -0.25400
C2194       C  0.78021294  0.69473877  0.88873429     0.37100
C2195       C  0.86290171  0.72911223  0.86908423     0.06600
F2196       F  0.87179643  0.66059710  0.85008704    -0.19200
H2197       H  0.81919155  0.62662076  0.84795996     0.16500
F2198       F  0.75177729  0.70669493  0.90583158    -0.22900
H2199       H  0.80352901  0.73978550  0.90370412     0.18300
C2200       C  0.85860577  0.75418359  0.83922856     0.26300
C2201       C  0.87982320  0.78044547  0.83694687    -0.11400
C2202       C  0.90621170  0.78298794  0.86441410    -0.25500
C2203       C  0.91010997  0.75696824  0.89451704     0.37200
C2204       C  0.88909642  0.73023639  0.89579271    -0.27100
F2205       F  0.83308476  0.75379078  0.81309805    -0.19200
H2206       H  0.87454392  0.79967307  0.81445826     0.16500
F2207       F  0.93168196  0.75755408  0.92580608    -0.22900
H2208       H  0.89240158  0.71125769  0.91953486     0.18300
loop_ 
_geom_bond_atom_site_label_1 
_geom_bond_atom_site_label_2 
_geom_bond_distance 
_geom_bond_site_symmetry_2 
_ccdc_geom_bond_type 
C1           C35   1.552       .  S
C1          C230   1.561       .  S
C1          C250   1.569       .  S
C1          C261   1.561       .  S
C2           C22   1.549       .  S
C2          C181   1.555       .  S
C2          C201   1.569       .  S
C2          C241   1.571       .  S
C3           C19   1.545       .  S
C3          C150   1.564       .  S
C3          C161   1.562       .  S
C3          C270   1.562       .  S
C4          C170   1.572       .  S
C4          C210   1.580       .  S
C4          C586   1.554       .  S
C4          C673   1.562       .  S
C5           C81   1.565       .  S
C5          C101   1.576       .  S
C5          C221   1.560       .  S
C5          C309   1.550   1_554  S
C6           C61   1.566       .  S
C6           C90   1.558       .  S
C6          C190   1.560       .  S
C6          C296   1.546       .  S
C7           C41   1.568       .  S
C7          C110   1.580       .  S
C7          C141   1.559       .  S
C7          C297   1.546       .  S
C8           C50   1.583       .  S
C8           C70   1.569       .  S
C8          C864   1.553   1_554  S
C8          C682   1.561       .  S
O9           V17   1.912       .  S
O9           C19   1.266       .  A
O10        V1121   1.905       .  S
O10          C20   1.265       .  A
O11          V17   1.897       .  S
O11          C21   1.262       .  A
O12        V1121   1.892       .  S
O12          C22   1.263       .  A
O13        V1122   1.925       .  S
O13          C22   1.273       .  A
O14          V18   1.918       .  S
O14          C21   1.272       .  A
O15        V1122   1.908       .  S
O15          C20   1.269       .  A
O16          V18   1.907       .  S
O16          C19   1.270       .  A
V17        O1114   1.905       .  S
V17        O1116   1.892       .  S
V17          V18   2.055       .  T
V18        O1117   1.925       .  S
V18        O1119   1.908       .  S
C20         C282   1.545       .  S
C21         C283   1.547       .  S
O23          V31   1.906       .  S
O23          C33   1.264       .  A
O24          V31   1.910       .  S
O24          C34   1.269       .  A
O25          V31   1.907       .  S
O25          C35   1.269       .  A
O26          V31   1.903       .  S
O26          C36   1.260       .  A
O27          V32   1.910       .  S
O27          C36   1.270       .  A
O28          V32   1.908       .  S
O28          C35   1.264       .  A
O29          V32   1.903       .  S
O29          C34   1.261       .  A
O30          V32   1.906       .  S
O30          C33   1.268       .  A
V31          V32   2.072       .  T
C33         C281   1.550       .  S
C34         C556   1.554   1_545  S
C36         C836   1.553   1_545  S
C37          C38   1.408       .  A
C37          C42   1.401       .  A
C37          H47   1.080       .  S
C38         C315   1.412       .  A
C38          C43   1.518       .  S
C39          C40   1.400       .  A
C39         C314   1.413       .  A
C39          F44   1.348       .  S
C40         C317   1.412       .  A
C40          H45   1.079       .  S
C41          C42   1.421       .  A
C41         C316   1.412       .  A
C42          F46   1.356       .  S
C43          C48   1.412       .  A
C43          C52   1.411       .  A
C48          C49   1.396       .  A
C48          F53   1.357       .  S
C49          C50   1.418       .  A
C49          H54   1.082       .  S
C50          C51   1.422   1_554  A
C51          C52   1.406   1_556  A
C51          F55   1.349       .  S
C52          H56   1.077   1_554  S
C57          C62   1.394       .  A
C57         C334   1.407       .  A
C57          H67   1.079       .  S
C58          C59   1.417   1_556  A
C58         C333   1.407       .  A
C58          C63   1.511       .  S
C59          C60   1.400       .  A
C59          F64   1.355       .  S
C60          C61   1.411       .  A
C60          H65   1.083       .  S
C61         C338   1.419   1_554  A
C62         C337   1.420       .  A
C62          F66   1.356       .  S
C63          C68   1.414       .  A
C63          C72   1.409   1_556  A
C68          C69   1.391       .  A
C68          F73   1.356       .  S
C69          C70   1.414   1_556  A
C69          H74   1.080       .  S
C70          C71   1.421       .  A
C71          C72   1.401       .  A
C71          F75   1.358       .  S
C72          H76   1.079       .  S
C77          C78   1.397       .  A
C77          C82   1.400       .  A
C77          H87   1.083       .  S
C78         C355   1.399   1_554  A
C78          C83   1.471       .  S
C79          C80   1.390       .  A
C79         C354   1.399       .  A
C79          F84   1.358       .  S
C80         C357   1.415       .  A
C80          H85   1.079       .  S
C81          C82   1.426       .  A
C81         C356   1.415   1_554  A
C82          F86   1.358       .  S
C83          C88   1.398   1_554  A
C83          C92   1.395       .  A
C88          C89   1.396       .  A
C88          F93   1.355       .  S
C89          C90   1.420   1_556  A
C89          H94   1.073       .  S
C90          C91   1.421       .  A
C91          C92   1.389       .  A
C91          F95   1.356       .  S
C92          H96   1.085       .  S
C97          C98   1.398       .  A
C97         C102   1.395       .  A
C97         H107   1.084       .  S
C98         C375   1.402   1_554  A
C98         C103   1.491       .  S
C99         C100   1.405       .  A
C99         C374   1.402       .  A
C99         F104   1.353       .  S
C100        C377   1.420       .  A
C100        H105   1.075       .  S
C101        C102   1.424       .  A
C101        C376   1.420   1_554  A
C102        F106   1.356       .  S
C103        C108   1.400       .  A
C103        C112   1.401       .  A
C108        C109   1.394       .  A
C108        F113   1.358       .  S
C109        C110   1.420       .  A
C109        H114   1.078       .  S
C110        C111   1.428       .  A
C111        C112   1.407       .  A
C111        F115   1.358       .  S
C112        H116   1.083       .  S
C117        C122   1.399       .  A
C117        C670   1.398       .  A
C117        H127   1.084       .  S
C118        C119   1.401       .  A
C118        C669   1.398   1_545  A
C118        C123   1.487       .  S
C119        C120   1.400       .  A
C119        F124   1.355       .  S
C120        C121   1.417       .  A
C120        H125   1.083       .  S
C121        C556   1.562   1_545  S
C121        C674   1.427   1_545  A
C122        C673   1.427       .  A
C122        F126   1.351       .  S
C123        C128   1.401       .  A
C123        C684   1.398   1_545  A
C128        C129   1.400       .  A
C128        F133   1.356       .  S
C129        C130   1.416       .  A
C129        H134   1.084       .  S
C130        C560   1.561   1_545  S
C130        C683   1.427   1_545  A
C131        C132   1.398       .  A
C131        C682   1.427       .  A
C131        F135   1.352       .  S
C132        C675   1.398       .  A
C132        H136   1.085       .  S
C137        C138   1.402       .  A
C137        C142   1.400       .  A
C137        H147   1.083       .  S
C138        C139   1.396       .  A
C138        C143   1.477       .  S
C139        C140   1.394       .  A
C139        F144   1.358       .  S
C140        C141   1.420       .  A
C140        H145   1.075       .  S
C141        C142   1.419       .  A
C142        F146   1.356       .  S
C143        C148   1.403       .  A
C143        C152   1.391       .  A
C148        C149   1.405       .  A
C148        F153   1.357       .  S
C149        C150   1.417       .  A
C149        H154   1.081       .  S
C150        C151   1.429       .  A
C151        C152   1.388       .  A
C151        F155   1.355       .  S
C152        H156   1.085       .  S
C157        C158   1.409       .  A
C157        C162   1.395       .  A
C157        H167   1.080       .  S
C158        C159   1.417       .  A
C158        C163   1.508       .  S
C159        C160   1.401       .  A
C159        F164   1.355       .  S
C160        C161   1.411       .  A
C160        H165   1.083       .  S
C161        C162   1.416       .  A
C162        F166   1.356       .  S
C163        C168   1.411       .  A
C163        C172   1.408       .  A
C168        C169   1.391       .  A
C168        F173   1.357       .  S
C169        C170   1.417       .  A
C169        H174   1.078       .  S
C170        C171   1.422       .  A
C171        C172   1.402       .  A
C171        F175   1.357       .  S
C172        H176   1.079       .  S
C177        C178   1.392       .  A
C177        C182   1.390       .  A
C177        H187   1.084       .  S
C178        C179   1.401       .  A
C178        C183   1.470       .  S
C179        C180   1.398       .  A
C179        F184   1.356       .  S
C180        C181   1.415       .  A
C180        H185   1.082       .  S
C181        C182   1.428       .  A
C182        F186   1.354       .  S
C183        C188   1.393       .  A
C183        C192   1.399       .  A
C188        C189   1.388       .  A
C188        F193   1.359       .  S
C189        C190   1.420       .  A
C189        H194   1.075       .  S
C190        C191   1.421       .  A
C191        C192   1.402       .  A
C191        F195   1.355       .  S
C192        H196   1.083       .  S
C197        C198   1.403       .  A
C197        C202   1.400       .  A
C197        H207   1.076       .  S
C198        C199   1.409       .  A
C198        C203   1.506       .  S
C199        C200   1.399       .  A
C199        F204   1.357       .  S
C200        C201   1.419       .  A
C200        H205   1.080       .  S
C201        C202   1.412       .  A
C202        F206   1.346       .  S
C203        C208   1.411       .  A
C203        C212   1.403       .  A
C208        C209   1.405       .  A
C208        F213   1.357       .  S
C209        C210   1.419       .  A
C209        H214   1.074       .  S
C210        C211   1.422       .  A
C211        C212   1.394       .  A
C211        F215   1.356       .  S
C212        H216   1.081       .  S
C217        C218   1.402       .  A
C217        C222   1.402       .  A
C217        H227   1.081       .  S
C218        C219   1.397       .  A
C218        C223   1.484       .  S
C219        C220   1.392       .  A
C219        F224   1.358       .  S
C220        C221   1.422       .  A
C220        H225   1.075       .  S
C221        C222   1.416       .  A
C222        F226   1.357       .  S
C223        C228   1.403       .  A
C223        C232   1.394       .  A
C228        C229   1.400       .  A
C228        F233   1.355       .  S
C229        C230   1.415       .  A
C229        H234   1.082       .  S
C230        C231   1.430       .  A
C231        C232   1.394       .  A
C231        F235   1.353       .  S
C232        H236   1.084       .  S
C237        C238   1.399       .  A
C237        C242   1.402       .  A
C237        H247   1.083       .  S
C238        C239   1.403       .  A
C238        C243   1.488       .  S
C239        C240   1.398       .  A
C239        F244   1.358       .  S
C240        C241   1.418       .  A
C240        H245   1.079       .  S
C241        C242   1.428       .  A
C242        F246   1.357       .  S
C243        C248   1.401       .  A
C243        C252   1.397       .  A
C248        C249   1.400       .  A
C248        F253   1.350       .  S
C249        C250   1.418       .  A
C249        H254   1.075       .  S
C250        C251   1.425       .  A
C251        C252   1.395       .  A
C251        F255   1.355       .  S
C252        H256   1.084       .  S
C257        C258   1.393       .  A
C257        C262   1.387       .  A
C257        H267   1.084       .  S
C258        C259   1.399       .  A
C258        C263   1.466       .  S
C259        C260   1.400       .  A
C259        F264   1.357       .  S
C260        C261   1.420       .  A
C260        H265   1.083       .  S
C261        C262   1.424       .  A
C262        F266   1.354       .  S
C263        C268   1.395       .  A
C263        C272   1.393       .  A
C268        C269   1.387       .  A
C268        F273   1.358       .  S
C269        C270   1.417       .  A
C269        H274   1.078       .  S
C270        C271   1.426       .  A
C271        C272   1.397       .  A
C271        F275   1.345       .  S
C272        H276   1.080       .  S
C277        C311   1.552       .  S
C277        C506   1.561       .  S
C277        C526   1.569       .  S
C277        C537   1.562       .  S
C278        C298   1.548       .  S
C278        C457   1.555       .  S
C278        C477   1.568       .  S
C278        C517   1.570       .  S
C279        C295   1.545       .  S
C279        C426   1.564       .  S
C279        C437   1.562       .  S
C279        C546   1.562       .  S
C280        C862   1.554       .  S
C280        C949   1.562       .  S
C280        C446   1.572       .  S
C280        C486   1.579       .  S
C281        C357   1.566       .  S
C281        C377   1.576       .  S
C281        C497   1.561       .  S
C282        C337   1.566       .  S
C282        C366   1.558       .  S
C282        C466   1.561       .  S
C283        C317   1.568       .  S
C283        C386   1.580       .  S
C283        C417   1.559       .  S
C284        C588   1.553       .  S
C284        C326   1.583       .  S
C284        C346   1.569       .  S
C284        C958   1.561       .  S
O285        V293   1.913       .  S
O285        C295   1.266       .  A
O286       V1397   1.905       .  S
O286        C296   1.266   1_556  A
O287        V293   1.897       .  S
O287        C297   1.262   1_556  A
O288       V1397   1.891       .  S
O288        C298   1.263       .  A
O289       V1398   1.925       .  S
O289        C298   1.273       .  A
O290        V294   1.918       .  S
O290        C297   1.272   1_556  A
O291       V1398   1.908       .  S
O291        C296   1.269   1_556  A
O292        V294   1.906       .  S
O292        C295   1.269       .  A
V293       O1390   1.905       .  S
V293       O1392   1.891       .  S
V293        V294   2.053       .  T
V294       O1393   1.925       .  S
V294       O1395   1.908       .  S
O299        V307   1.905       .  S
O299        C309   1.264       .  A
O300        V307   1.910       .  S
O300        C310   1.269       .  A
O301        V307   1.908       .  S
O301        C311   1.269       .  A
O302        V307   1.903       .  S
O302        C312   1.260       .  A
O303        V308   1.911       .  S
O303        C312   1.270       .  A
O304        V308   1.908       .  S
O304        C311   1.265       .  A
O305        V308   1.903       .  S
O305        C310   1.261       .  A
O306        V308   1.905       .  S
O306        C309   1.268       .  A
V307        V308   2.072       .  T
C310        C832   1.554   1_545  S
C312        C560   1.553   1_546  S
C313        C314   1.408       .  A
C313        C318   1.401       .  A
C313        H323   1.080       .  S
C314        C319   1.519       .  S
C315        C316   1.400       .  A
C315        F320   1.349   1_554  S
C316        H321   1.079   1_554  S
C317        C318   1.421       .  A
C318        F322   1.356       .  S
C319        C324   1.412       .  A
C319        C328   1.411       .  A
C324        C325   1.397       .  A
C324        F329   1.357       .  S
C325        C326   1.418       .  A
C325        H330   1.082       .  S
C326        C327   1.422       .  A
C327        C328   1.406       .  A
C327        F331   1.349       .  S
C328        H332   1.077       .  S
C333        C338   1.394       .  A
C333        H343   1.079       .  S
C334        C335   1.417       .  A
C334        C339   1.510       .  S
C335        C336   1.399       .  A
C335        F340   1.355       .  S
C336        C337   1.410       .  A
C336        H341   1.083       .  S
C338        F342   1.356       .  S
C339        C344   1.414       .  A
C339        C348   1.409       .  A
C344        C345   1.391       .  A
C344        F349   1.356       .  S
C345        C346   1.414       .  A
C345        H350   1.080       .  S
C346        C347   1.421       .  A
C347        C348   1.401       .  A
C347        F351   1.357       .  S
C348        H352   1.079       .  S
C353        C354   1.397       .  A
C353        C358   1.400       .  A
C353        H363   1.083       .  S
C354        C359   1.472       .  S
C355        C356   1.389       .  A
C355        F360   1.358       .  S
C356        H361   1.079       .  S
C357        C358   1.426       .  A
C358        F362   1.358       .  S
C359        C364   1.398       .  A
C359        C368   1.395       .  A
C364        C365   1.396       .  A
C364        F369   1.354       .  S
C365        C366   1.420       .  A
C365        H370   1.073       .  S
C366        C367   1.421       .  A
C367        C368   1.389       .  A
C367        F371   1.356       .  S
C368        H372   1.084       .  S
C373        C374   1.398       .  A
C373        C378   1.394       .  A
C373        H383   1.084       .  S
C374        C379   1.491       .  S
C375        C376   1.404       .  A
C375        F380   1.353       .  S
C376        H381   1.074       .  S
C377        C378   1.424       .  A
C378        F382   1.356       .  S
C379        C384   1.400       .  A
C379        C388   1.401       .  A
C384        C385   1.394       .  A
C384        F389   1.358       .  S
C385        C386   1.420       .  A
C385        H390   1.078       .  S
C386        C387   1.428       .  A
C387        C388   1.408       .  A
C387        F391   1.358       .  S
C388        H392   1.083       .  S
C393        C946   1.398       .  A
C393        C398   1.399       .  A
C393        H403   1.084       .  S
C394        C945   1.398   1_545  A
C394        C395   1.401       .  A
C394        C399   1.487       .  S
C395        C396   1.401       .  A
C395        F400   1.355       .  S
C396        C397   1.418       .  A
C396        H401   1.083       .  S
C397        C832   1.562   1_545  S
C397        C950   1.427   1_545  A
C398        C949   1.427       .  A
C398        F402   1.351       .  S
C399        C404   1.401       .  A
C399        C960   1.398   1_545  A
C404        C405   1.399       .  A
C404        F409   1.356       .  S
C405        C406   1.416       .  A
C405        H410   1.084       .  S
C406        C836   1.561   1_545  S
C406        C959   1.427   1_545  A
C407        C958   1.427       .  A
C407        C408   1.399       .  A
C407        F411   1.352       .  S
C408        C951   1.398       .  A
C408        H412   1.085       .  S
C413        C414   1.402       .  A
C413        C418   1.400       .  A
C413        H423   1.083       .  S
C414        C415   1.396       .  A
C414        C419   1.477       .  S
C415        C416   1.395       .  A
C415        F420   1.358       .  S
C416        C417   1.420       .  A
C416        H421   1.075       .  S
C417        C418   1.420       .  A
C418        F422   1.356       .  S
C419        C424   1.403       .  A
C419        C428   1.391       .  A
C424        C425   1.405       .  A
C424        F429   1.357       .  S
C425        C426   1.417       .  A
C425        H430   1.081       .  S
C426        C427   1.429       .  A
C427        C428   1.388       .  A
C427        F431   1.355       .  S
C428        H432   1.085       .  S
C433        C434   1.409       .  A
C433        C438   1.394       .  A
C433        H443   1.080       .  S
C434        C435   1.417       .  A
C434        C439   1.508       .  S
C435        C436   1.401       .  A
C435        F440   1.355       .  S
C436        C437   1.411       .  A
C436        H441   1.083       .  S
C437        C438   1.416       .  A
C438        F442   1.356       .  S
C439        C444   1.411       .  A
C439        C448   1.408       .  A
C444        C445   1.391       .  A
C444        F449   1.357       .  S
C445        C446   1.417       .  A
C445        H450   1.079       .  S
C446        C447   1.422       .  A
C447        C448   1.402       .  A
C447        F451   1.358       .  S
C448        H452   1.079       .  S
C453        C454   1.392       .  A
C453        C458   1.390       .  A
C453        H463   1.085       .  S
C454        C455   1.401       .  A
C454        C459   1.470       .  S
C455        C456   1.399       .  A
C455        F460   1.356       .  S
C456        C457   1.415       .  A
C456        H461   1.082       .  S
C457        C458   1.429       .  A
C458        F462   1.354       .  S
C459        C464   1.393       .  A
C459        C468   1.400       .  A
C464        C465   1.389       .  A
C464        F469   1.359       .  S
C465        C466   1.420       .  A
C465        H470   1.075       .  S
C466        C467   1.421       .  A
C467        C468   1.402       .  A
C467        F471   1.356       .  S
C468        H472   1.083       .  S
C473        C474   1.403       .  A
C473        C478   1.399       .  A
C473        H483   1.076       .  S
C474        C475   1.409       .  A
C474        C479   1.505       .  S
C475        C476   1.398       .  A
C475        F480   1.357       .  S
C476        C477   1.418       .  A
C476        H481   1.080       .  S
C477        C478   1.413       .  A
C478        F482   1.346       .  S
C479        C484   1.412       .  A
C479        C488   1.403       .  A
C484        C485   1.405       .  A
C484        F489   1.357       .  S
C485        C486   1.419       .  A
C485        H490   1.074       .  S
C486        C487   1.422       .  A
C487        C488   1.393       .  A
C487        F491   1.356       .  S
C488        H492   1.081       .  S
C493        C494   1.402       .  A
C493        C498   1.402       .  A
C493        H503   1.081       .  S
C494        C495   1.398       .  A
C494        C499   1.484       .  S
C495        C496   1.392       .  A
C495        F500   1.358       .  S
C496        C497   1.422       .  A
C496        H501   1.075       .  S
C497        C498   1.416       .  A
C498        F502   1.357       .  S
C499        C504   1.402       .  A
C499        C508   1.394       .  A
C504        C505   1.400       .  A
C504        F509   1.354       .  S
C505        C506   1.414       .  A
C505        H510   1.082       .  S
C506        C507   1.430       .  A
C507        C508   1.395       .  A
C507        F511   1.353       .  S
C508        H512   1.084       .  S
C513        C514   1.398       .  A
C513        C518   1.402       .  A
C513        H523   1.083       .  S
C514        C515   1.403       .  A
C514        C519   1.487       .  S
C515        C516   1.398       .  A
C515        F520   1.358       .  S
C516        C517   1.418       .  A
C516        H521   1.079       .  S
C517        C518   1.428       .  A
C518        F522   1.357       .  S
C519        C524   1.401       .  A
C519        C528   1.397       .  A
C524        C525   1.400       .  A
C524        F529   1.350       .  S
C525        C526   1.418       .  A
C525        H530   1.075       .  S
C526        C527   1.426       .  A
C527        C528   1.395       .  A
C527        F531   1.355       .  S
C528        H532   1.084       .  S
C533        C534   1.393       .  A
C533        C538   1.388       .  A
C533        H543   1.084       .  S
C534        C535   1.399       .  A
C534        C539   1.467       .  S
C535        C536   1.400       .  A
C535        F540   1.357       .  S
C536        C537   1.419       .  A
C536        H541   1.083       .  S
C537        C538   1.424       .  A
C538        F542   1.354       .  S
C539        C544   1.395       .  A
C539        C548   1.393       .  A
C544        C545   1.387       .  A
C544        F549   1.358       .  S
C545        C546   1.417       .  A
C545        H550   1.078       .  S
C546        C547   1.427       .  A
C547        C548   1.397       .  A
C547        F551   1.345       .  S
C548        H552   1.080       .  S
C553        C587   1.552       .  S
C553        C782   1.561       .  S
C553        C802   1.569       .  S
C553        C813   1.561       .  S
C554        C574   1.549       .  S
C554        C733   1.555       .  S
C554        C753   1.569       .  S
C554        C793   1.571       .  S
C555        C571   1.545       .  S
C555        C702   1.564       .  S
C555        C713   1.562       .  S
C555        C822   1.562       .  S
C556        C722   1.572       .  S
C556        C762   1.580       .  S
C557        C861   1.550   1_554  S
C557        C633   1.565       .  S
C557        C653   1.576       .  S
C557        C773   1.560       .  S
C558        C848   1.546       .  S
C558        C613   1.566       .  S
C558        C642   1.558       .  S
C558        C742   1.560       .  S
C559        C849   1.546       .  S
C559        C593   1.568       .  S
C559        C662   1.580       .  S
C559        C693   1.559       .  S
C560        C602   1.583       .  S
C560        C622   1.569       .  S
O561        V569   1.912       .  S
O561        C571   1.266       .  A
O562       V1673   1.905       .  S
O562        C572   1.265       .  A
O563        V569   1.897       .  S
O563        C573   1.262       .  A
O564       V1673   1.892       .  S
O564        C574   1.263       .  A
O565       V1674   1.925       .  S
O565        C574   1.273       .  A
O566        V570   1.918       .  S
O566        C573   1.272       .  A
O567       V1674   1.908       .  S
O567        C572   1.269       .  A
O568        V570   1.907       .  S
O568        C571   1.270       .  A
V569       O1666   1.905       .  S
V569       O1668   1.892       .  S
V569        V570   2.055       .  T
V570       O1669   1.925       .  S
V570       O1671   1.908       .  S
C572        C834   1.545       .  S
C573        C835   1.547       .  S
O575        V583   1.906       .  S
O575        C585   1.264       .  A
O576        V583   1.910       .  S
O576        C586   1.269       .  A
O577        V583   1.907       .  S
O577        C587   1.269       .  A
O578        V583   1.903       .  S
O578        C588   1.260       .  A
O579        V584   1.910       .  S
O579        C588   1.270       .  A
O580        V584   1.908       .  S
O580        C587   1.264       .  A
O581        V584   1.903       .  S
O581        C586   1.261       .  A
O582        V584   1.906       .  S
O582        C585   1.268       .  A
V583        V584   2.072       .  T
C585        C833   1.550       .  S
C589        C590   1.408       .  A
C589        C594   1.401       .  A
C589        H599   1.080       .  S
C590        C867   1.412       .  A
C590        C595   1.518       .  S
C591        C866   1.413       .  A
C591        C592   1.400       .  A
C591        F596   1.348       .  S
C592        C869   1.412       .  A
C592        H597   1.079       .  S
C593        C868   1.412       .  A
C593        C594   1.421       .  A
C594        F598   1.356       .  S
C595        C600   1.412       .  A
C595        C604   1.411       .  A
C600        C601   1.396       .  A
C600        F605   1.357       .  S
C601        C602   1.418       .  A
C601        H606   1.082       .  S
C602        C603   1.422   1_554  A
C603        C604   1.406   1_556  A
C603        F607   1.349       .  S
C604        H608   1.077   1_554  S
C609        C886   1.407       .  A
C609        C614   1.394       .  A
C609        H619   1.079       .  S
C610        C885   1.407       .  A
C610        C611   1.417   1_556  A
C610        C615   1.511       .  S
C611        C612   1.400       .  A
C611        F616   1.355       .  S
C612        C613   1.411       .  A
C612        H617   1.083       .  S
C613        C890   1.419   1_554  A
C614        C889   1.420       .  A
C614        F618   1.356       .  S
C615        C620   1.414       .  A
C615        C624   1.409   1_556  A
C620        C621   1.391       .  A
C620        F625   1.356       .  S
C621        C622   1.414   1_556  A
C621        H626   1.080       .  S
C622        C623   1.421       .  A
C623        C624   1.401       .  A
C623        F627   1.358   1_565  S
C624        H628   1.079       .  S
C629        C630   1.397       .  A
C629        C634   1.400       .  A
C629        H639   1.083       .  S
C630        C907   1.399   1_554  A
C630        C635   1.471       .  S
C631        C906   1.399       .  A
C631        C632   1.390       .  A
C631        F636   1.358       .  S
C632        C909   1.415       .  A
C632        H637   1.079       .  S
C633        C908   1.415   1_554  A
C633        C634   1.426       .  A
C634        F638   1.358       .  S
C635        C640   1.398   1_554  A
C635        C644   1.395       .  A
C640        C641   1.396       .  A
C640        F645   1.355       .  S
C641        C642   1.420   1_556  A
C641        H646   1.073       .  S
C642        C643   1.421       .  A
C643        C644   1.389       .  A
C643        F647   1.356       .  S
C644        H648   1.085       .  S
C649        C650   1.398       .  A
C649        C654   1.395       .  A
C649        H659   1.084       .  S
C650        C927   1.402   1_554  A
C650        C655   1.491       .  S
C651        C926   1.402       .  A
C651        C652   1.405       .  A
C651        F656   1.353       .  S
C652        C929   1.420       .  A
C652        H657   1.075       .  S
C653        C928   1.420   1_554  A
C653        C654   1.424       .  A
C654        F658   1.356       .  S
C655        C660   1.400       .  A
C655        C664   1.401       .  A
C660        C661   1.395       .  A
C660        F665   1.358       .  S
C661        C662   1.420       .  A
C661        H666   1.078       .  S
C662        C663   1.428       .  A
C663        C664   1.407       .  A
C663        F667   1.358       .  S
C664        H668   1.083       .  S
C669        C674   1.399       .  A
C669        H679   1.084       .  S
C670        C671   1.401       .  A
C670        C675   1.487       .  S
C671        C672   1.400       .  A
C671        F676   1.355       .  S
C672        C673   1.417       .  A
C672        H677   1.083       .  S
C674        F678   1.351       .  S
C675        C680   1.401       .  A
C680        C681   1.400       .  A
C680        F685   1.356       .  S
C681        C682   1.416       .  A
C681        H686   1.084       .  S
C683        C684   1.398       .  A
C683        F687   1.352       .  S
C684        H688   1.085       .  S
C689        C690   1.402       .  A
C689        C694   1.400       .  A
C689        H699   1.083       .  S
C690        C691   1.396       .  A
C690        C695   1.477       .  S
C691        C692   1.394       .  A
C691        F696   1.358       .  S
C692        C693   1.420       .  A
C692        H697   1.075       .  S
C693        C694   1.419       .  A
C694        F698   1.356       .  S
C695        C700   1.403       .  A
C695        C704   1.391       .  A
C700        C701   1.405       .  A
C700        F705   1.357       .  S
C701        C702   1.417       .  A
C701        H706   1.081       .  S
C702        C703   1.429       .  A
C703        C704   1.388       .  A
C703        F707   1.355       .  S
C704        H708   1.085       .  S
C709        C710   1.409       .  A
C709        C714   1.395       .  A
C709        H719   1.080       .  S
C710        C711   1.417       .  A
C710        C715   1.508       .  S
C711        C712   1.401       .  A
C711        F716   1.355       .  S
C712        C713   1.411       .  A
C712        H717   1.083       .  S
C713        C714   1.416       .  A
C714        F718   1.356       .  S
C715        C720   1.411       .  A
C715        C724   1.408       .  A
C720        C721   1.391       .  A
C720        F725   1.357       .  S
C721        C722   1.417       .  A
C721        H726   1.078       .  S
C722        C723   1.422       .  A
C723        C724   1.402       .  A
C723        F727   1.357   1_565  S
C724        H728   1.079       .  S
C729        C730   1.392       .  A
C729        C734   1.390       .  A
C729        H739   1.085       .  S
C730        C731   1.401       .  A
C730        C735   1.470       .  S
C731        C732   1.398       .  A
C731        F736   1.356       .  S
C732        C733   1.415       .  A
C732        H737   1.082       .  S
C733        C734   1.428       .  A
C734        F738   1.354       .  S
C735        C740   1.393       .  A
C735        C744   1.399       .  A
C740        C741   1.388       .  A
C740        F745   1.359       .  S
C741        C742   1.420       .  A
C741        H746   1.075       .  S
C742        C743   1.421       .  A
C743        C744   1.402       .  A
C743        F747   1.355       .  S
C744        H748   1.083       .  S
C749        C750   1.403       .  A
C749        C754   1.400       .  A
C749        H759   1.076       .  S
C750        C751   1.409       .  A
C750        C755   1.506       .  S
C751        C752   1.399       .  A
C751        F756   1.357       .  S
C752        C753   1.419       .  A
C752        H757   1.080       .  S
C753        C754   1.412       .  A
C754        F758   1.346       .  S
C755        C760   1.411       .  A
C755        C764   1.403       .  A
C760        C761   1.405       .  A
C760        F765   1.357       .  S
C761        C762   1.419       .  A
C761        H766   1.074       .  S
C762        C763   1.422       .  A
C763        C764   1.394       .  A
C763        F767   1.356       .  S
C764        H768   1.081       .  S
C769        C770   1.402       .  A
C769        C774   1.402       .  A
C769        H779   1.081       .  S
C770        C771   1.397       .  A
C770        C775   1.484       .  S
C771        C772   1.392       .  A
C771        F776   1.358       .  S
C772        C773   1.422       .  A
C772        H777   1.075       .  S
C773        C774   1.416       .  A
C774        F778   1.357       .  S
C775        C780   1.403       .  A
C775        C784   1.394       .  A
C780        C781   1.400       .  A
C780        F785   1.355       .  S
C781        C782   1.415       .  A
C781        H786   1.082       .  S
C782        C783   1.430       .  A
C783        C784   1.394       .  A
C783        F787   1.353       .  S
C784        H788   1.084       .  S
C789        C790   1.399       .  A
C789        C794   1.402       .  A
C789        H799   1.083       .  S
C790        C791   1.403       .  A
C790        C795   1.488       .  S
C791        C792   1.398       .  A
C791        F796   1.358       .  S
C792        C793   1.418       .  A
C792        H797   1.079       .  S
C793        C794   1.428       .  A
C794        F798   1.357       .  S
C795        C800   1.401       .  A
C795        C804   1.397       .  A
C800        C801   1.400       .  A
C800        F805   1.350       .  S
C801        C802   1.418       .  A
C801        H806   1.075       .  S
C802        C803   1.425       .  A
C803        C804   1.395       .  A
C803        F807   1.355       .  S
C804        H808   1.084       .  S
C809        C810   1.393       .  A
C809        C814   1.387       .  A
C809        H819   1.084       .  S
C810        C811   1.399       .  A
C810        C815   1.466       .  S
C811        C812   1.400       .  A
C811        F816   1.357       .  S
C812        C813   1.420       .  A
C812        H817   1.083       .  S
C813        C814   1.424       .  A
C814        F818   1.354       .  S
C815        C820   1.395       .  A
C815        C824   1.393       .  A
C820        C821   1.387       .  A
C820        F825   1.358       .  S
C821        C822   1.417       .  A
C821        H826   1.078       .  S
C822        C823   1.426       .  A
C823        C824   1.397       .  A
C823        F827   1.345       .  S
C824        H828   1.080       .  S
C829        C863   1.552       .  S
C829       C1058   1.561       .  S
C829       C1078   1.569       .  S
C829       C1089   1.562       .  S
C830        C850   1.548       .  S
C830       C1009   1.555       .  S
C830       C1029   1.568       .  S
C830       C1069   1.570       .  S
C831        C847   1.545       .  S
C831        C978   1.564       .  S
C831        C989   1.562       .  S
C831       C1098   1.562       .  S
C832        C998   1.572       .  S
C832       C1038   1.579       .  S
C833        C909   1.566       .  S
C833        C929   1.576       .  S
C833       C1049   1.561       .  S
C834        C889   1.566       .  S
C834        C918   1.558       .  S
C834       C1018   1.561       .  S
C835        C869   1.568       .  S
C835        C938   1.580       .  S
C835        C969   1.559       .  S
C836        C878   1.583       .  S
C836        C898   1.569       .  S
O837        V845   1.913       .  S
O837        C847   1.266       .  A
O838       V1949   1.905       .  S
O838        C848   1.266   1_556  A
O839        V845   1.897       .  S
O839        C849   1.262   1_556  A
O840       V1949   1.891       .  S
O840        C850   1.263       .  A
O841       V1950   1.925       .  S
O841        C850   1.273       .  A
O842        V846   1.918       .  S
O842        C849   1.272   1_556  A
O843       V1950   1.908       .  S
O843        C848   1.269   1_556  A
O844        V846   1.906       .  S
O844        C847   1.269       .  A
V845       O1942   1.905       .  S
V845       O1944   1.891       .  S
V845        V846   2.053       .  T
V846       O1945   1.925       .  S
V846       O1947   1.908       .  S
O851        V859   1.905       .  S
O851        C861   1.264       .  A
O852        V859   1.910       .  S
O852        C862   1.269       .  A
O853        V859   1.908       .  S
O853        C863   1.269       .  A
O854        V859   1.903       .  S
O854        C864   1.260       .  A
O855        V860   1.911       .  S
O855        C864   1.270       .  A
O856        V860   1.908       .  S
O856        C863   1.265       .  A
O857        V860   1.903       .  S
O857        C862   1.261       .  A
O858        V860   1.905       .  S
O858        C861   1.268       .  A
V859        V860   2.072       .  T
C865        C866   1.408       .  A
C865        C870   1.401       .  A
C865        H875   1.080       .  S
C866        C871   1.519       .  S
C867        C868   1.400       .  A
C867        F872   1.349   1_554  S
C868        H873   1.079   1_554  S
C869        C870   1.421       .  A
C870        F874   1.356       .  S
C871        C876   1.412       .  A
C871        C880   1.411       .  A
C876        C877   1.397       .  A
C876        F881   1.357       .  S
C877        C878   1.418       .  A
C877        H882   1.082       .  S
C878        C879   1.422       .  A
C879        C880   1.406       .  A
C879        F883   1.349       .  S
C880        H884   1.077       .  S
C885        C890   1.394       .  A
C885        H895   1.079       .  S
C886        C887   1.417       .  A
C886        C891   1.510       .  S
C887        C888   1.399       .  A
C887        F892   1.355       .  S
C888        C889   1.410       .  A
C888        H893   1.083       .  S
C890        F894   1.356       .  S
C891        C896   1.414       .  A
C891        C900   1.409       .  A
C896        C897   1.391       .  A
C896        F901   1.356       .  S
C897        C898   1.414       .  A
C897        H902   1.080       .  S
C898        C899   1.421       .  A
C899        C900   1.401       .  A
C899        F903   1.357   1_565  S
C900        H904   1.079       .  S
C905        C906   1.397       .  A
C905        C910   1.400       .  A
C905        H915   1.083       .  S
C906        C911   1.472       .  S
C907        C908   1.389       .  A
C907        F912   1.358       .  S
C908        H913   1.079       .  S
C909        C910   1.426       .  A
C910        F914   1.358       .  S
C911        C916   1.398       .  A
C911        C920   1.395       .  A
C916        C917   1.396       .  A
C916        F921   1.354       .  S
C917        C918   1.420       .  A
C917        H922   1.073       .  S
C918        C919   1.421       .  A
C919        C920   1.389       .  A
C919        F923   1.356       .  S
C920        H924   1.084       .  S
C925        C926   1.398       .  A
C925        C930   1.394       .  A
C925        H935   1.084       .  S
C926        C931   1.491       .  S
C927        C928   1.404       .  A
C927        F932   1.353       .  S
C928        H933   1.074       .  S
C929        C930   1.424       .  A
C930        F934   1.356       .  S
C931        C936   1.400       .  A
C931        C940   1.401       .  A
C936        C937   1.394       .  A
C936        F941   1.358       .  S
C937        C938   1.420       .  A
C937        H942   1.078       .  S
C938        C939   1.428       .  A
C939        C940   1.408       .  A
C939        F943   1.358       .  S
C940        H944   1.083       .  S
C945        C950   1.399       .  A
C945        H955   1.084       .  S
C946        C947   1.401       .  A
C946        C951   1.487       .  S
C947        C948   1.401       .  A
C947        F952   1.355       .  S
C948        C949   1.418       .  A
C948        H953   1.083       .  S
C950        F954   1.351       .  S
C951        C956   1.401       .  A
C956        C957   1.399       .  A
C956        F961   1.356       .  S
C957        C958   1.416       .  A
C957        H962   1.084       .  S
C959        C960   1.399       .  A
C959        F963   1.352       .  S
C960        H964   1.085       .  S
C965        C966   1.402       .  A
C965        C970   1.400       .  A
C965        H975   1.083       .  S
C966        C967   1.396       .  A
C966        C971   1.477       .  S
C967        C968   1.395       .  A
C967        F972   1.358       .  S
C968        C969   1.420       .  A
C968        H973   1.075       .  S
C969        C970   1.420       .  A
C970        F974   1.356       .  S
C971        C976   1.403       .  A
C971        C980   1.391       .  A
C976        C977   1.405       .  A
C976        F981   1.357       .  S
C977        C978   1.417       .  A
C977        H982   1.081       .  S
C978        C979   1.429       .  A
C979        C980   1.388       .  A
C979        F983   1.355       .  S
C980        H984   1.085       .  S
C985        C986   1.409       .  A
C985        C990   1.394       .  A
C985        H995   1.080       .  S
C986        C987   1.417       .  A
C986        C991   1.507       .  S
C987        C988   1.401       .  A
C987        F992   1.355       .  S
C988        C989   1.411       .  A
C988        H993   1.083       .  S
C989        C990   1.416       .  A
C990        F994   1.356       .  S
C991        C996   1.411       .  A
C991       C1000   1.408       .  A
C996        C997   1.391       .  A
C996       F1001   1.357       .  S
C997        C998   1.417       .  A
C997       H1002   1.079       .  S
C998        C999   1.422       .  A
C999       C1000   1.402       .  A
C999       F1003   1.358   1_565  S
C1000      H1004   1.079       .  S
C1005      C1006   1.392       .  A
C1005      C1010   1.390       .  A
C1005      H1015   1.085       .  S
C1006      C1007   1.401       .  A
C1006      C1011   1.470       .  S
C1007      C1008   1.399       .  A
C1007      F1012   1.356       .  S
C1008      C1009   1.415       .  A
C1008      H1013   1.082       .  S
C1009      C1010   1.429       .  A
C1010      F1014   1.354       .  S
C1011      C1016   1.393       .  A
C1011      C1020   1.400       .  A
C1016      C1017   1.389       .  A
C1016      F1021   1.359       .  S
C1017      C1018   1.420       .  A
C1017      H1022   1.075       .  S
C1018      C1019   1.421       .  A
C1019      C1020   1.402       .  A
C1019      F1023   1.356       .  S
C1020      H1024   1.083       .  S
C1025      C1026   1.403       .  A
C1025      C1030   1.399       .  A
C1025      H1035   1.076       .  S
C1026      C1027   1.409       .  A
C1026      C1031   1.505       .  S
C1027      C1028   1.398       .  A
C1027      F1032   1.357       .  S
C1028      C1029   1.418       .  A
C1028      H1033   1.080       .  S
C1029      C1030   1.413       .  A
C1030      F1034   1.346       .  S
C1031      C1036   1.412       .  A
C1031      C1040   1.403       .  A
C1036      C1037   1.405       .  A
C1036      F1041   1.357       .  S
C1037      C1038   1.419       .  A
C1037      H1042   1.074       .  S
C1038      C1039   1.422       .  A
C1039      C1040   1.393       .  A
C1039      F1043   1.356       .  S
C1040      H1044   1.081       .  S
C1045      C1046   1.402       .  A
C1045      C1050   1.402       .  A
C1045      H1055   1.081       .  S
C1046      C1047   1.398       .  A
C1046      C1051   1.484       .  S
C1047      C1048   1.392       .  A
C1047      F1052   1.358       .  S
C1048      C1049   1.422       .  A
C1048      H1053   1.075       .  S
C1049      C1050   1.416       .  A
C1050      F1054   1.357       .  S
C1051      C1056   1.402       .  A
C1051      C1060   1.394       .  A
C1056      C1057   1.400       .  A
C1056      F1061   1.354       .  S
C1057      C1058   1.414       .  A
C1057      H1062   1.082       .  S
C1058      C1059   1.430       .  A
C1059      C1060   1.395       .  A
C1059      F1063   1.353       .  S
C1060      H1064   1.084       .  S
C1065      C1066   1.398       .  A
C1065      C1070   1.402       .  A
C1065      H1075   1.083       .  S
C1066      C1067   1.403       .  A
C1066      C1071   1.487       .  S
C1067      C1068   1.398       .  A
C1067      F1072   1.358       .  S
C1068      C1069   1.418       .  A
C1068      H1073   1.079       .  S
C1069      C1070   1.428       .  A
C1070      F1074   1.357       .  S
C1071      C1076   1.401       .  A
C1071      C1080   1.397       .  A
C1076      C1077   1.400       .  A
C1076      F1081   1.350       .  S
C1077      C1078   1.418       .  A
C1077      H1082   1.075       .  S
C1078      C1079   1.426       .  A
C1079      C1080   1.395       .  A
C1079      F1083   1.354       .  S
C1080      H1084   1.084       .  S
C1085      C1086   1.393       .  A
C1085      C1090   1.388       .  A
C1085      H1095   1.084       .  S
C1086      C1087   1.399       .  A
C1086      C1091   1.467       .  S
C1087      C1088   1.400       .  A
C1087      F1092   1.357       .  S
C1088      C1089   1.419       .  A
C1088      H1093   1.083       .  S
C1089      C1090   1.424       .  A
C1090      F1094   1.354       .  S
C1091      C1096   1.395       .  A
C1091      C1100   1.393       .  A
C1096      C1097   1.387       .  A
C1096      F1101   1.358       .  S
C1097      C1098   1.417       .  A
C1097      H1102   1.078       .  S
C1098      C1099   1.427       .  A
C1099      C1100   1.397       .  A
C1099      F1103   1.345       .  S
C1100      H1104   1.080       .  S
C1105      C1139   1.552       .  S
C1105      C1334   1.561       .  S
C1105      C1354   1.569       .  S
C1105      C1365   1.561       .  S
C1106      C1126   1.549       .  S
C1106      C1285   1.555       .  S
C1106      C1305   1.569       .  S
C1106      C1345   1.571       .  S
C1107      C1123   1.545       .  S
C1107      C1254   1.564       .  S
C1107      C1265   1.562       .  S
C1107      C1374   1.562       .  S
C1108      C1690   1.554       .  S
C1108      C1777   1.562       .  S
C1108      C1274   1.572       .  S
C1108      C1314   1.580       .  S
C1109      C1413   1.550   1_554  S
C1109      C1185   1.565       .  S
C1109      C1205   1.576       .  S
C1109      C1325   1.560       .  S
C1110      C1400   1.546       .  S
C1110      C1165   1.566       .  S
C1110      C1194   1.558       .  S
C1110      C1294   1.560       .  S
C1111      C1401   1.546       .  S
C1111      C1145   1.568       .  S
C1111      C1214   1.580       .  S
C1111      C1245   1.559       .  S
C1112      C1968   1.553   1_554  S
C1112      C1154   1.583       .  S
C1112      C1174   1.569       .  S
C1112      C1786   1.561       .  S
O1113      V1121   1.912   1_655  S
O1113      C1123   1.266       .  A
O1114      C1124   1.265       .  A
O1115      V1121   1.897   1_655  S
O1115      C1125   1.262       .  A
O1116      C1126   1.263       .  A
O1117      C1126   1.273       .  A
O1118      V1122   1.918   1_655  S
O1118      C1125   1.272       .  A
O1119      C1124   1.269       .  A
O1120      V1122   1.907   1_655  S
O1120      C1123   1.270       .  A
V1121      V1122   2.055       .  T
C1124      C1386   1.545       .  S
C1125      C1387   1.547       .  S
O1127      V1135   1.906       .  S
O1127      C1137   1.264       .  A
O1128      V1135   1.910       .  S
O1128      C1138   1.269       .  A
O1129      V1135   1.907       .  S
O1129      C1139   1.269       .  A
O1130      V1135   1.903       .  S
O1130      C1140   1.260       .  A
O1131      V1136   1.910       .  S
O1131      C1140   1.270       .  A
O1132      V1136   1.908       .  S
O1132      C1139   1.264       .  A
O1133      V1136   1.903       .  S
O1133      C1138   1.261       .  A
O1134      V1136   1.906       .  S
O1134      C1137   1.268       .  A
V1135      V1136   2.072       .  T
C1137      C1385   1.550       .  S
C1138      C1660   1.554   1_545  S
C1140      C1940   1.553   1_545  S
C1141      C1142   1.408       .  A
C1141      C1146   1.401       .  A
C1141      H1151   1.080       .  S
C1142      C1419   1.412       .  A
C1142      C1147   1.518       .  S
C1143      C1418   1.413       .  A
C1143      C1144   1.400       .  A
C1143      F1148   1.348       .  S
C1144      C1421   1.412       .  A
C1144      H1149   1.079       .  S
C1145      C1420   1.412       .  A
C1145      C1146   1.421       .  A
C1146      F1150   1.356       .  S
C1147      C1152   1.412       .  A
C1147      C1156   1.411       .  A
C1152      C1153   1.396       .  A
C1152      F1157   1.357       .  S
C1153      C1154   1.418       .  A
C1153      H1158   1.082       .  S
C1154      C1155   1.422   1_554  A
C1155      C1156   1.406   1_556  A
C1155      F1159   1.349       .  S
C1156      H1160   1.077   1_554  S
C1161      C1438   1.407       .  A
C1161      C1166   1.394       .  A
C1161      H1171   1.079       .  S
C1162      C1437   1.407       .  A
C1162      C1163   1.417   1_556  A
C1162      C1167   1.511       .  S
C1163      C1164   1.400       .  A
C1163      F1168   1.355       .  S
C1164      C1165   1.411       .  A
C1164      H1169   1.083       .  S
C1165      C1442   1.419   1_554  A
C1166      C1441   1.420       .  A
C1166      F1170   1.356       .  S
C1167      C1172   1.414       .  A
C1167      C1176   1.409   1_556  A
C1172      C1173   1.391       .  A
C1172      F1177   1.356       .  S
C1173      C1174   1.414   1_556  A
C1173      H1178   1.080       .  S
C1174      C1175   1.421       .  A
C1175      C1176   1.401       .  A
C1175      F1179   1.358       .  S
C1176      H1180   1.079       .  S
C1181      C1182   1.397       .  A
C1181      C1186   1.400       .  A
C1181      H1191   1.083       .  S
C1182      C1459   1.399   1_554  A
C1182      C1187   1.471       .  S
C1183      C1458   1.399       .  A
C1183      C1184   1.390       .  A
C1183      F1188   1.358       .  S
C1184      C1461   1.415       .  A
C1184      H1189   1.079       .  S
C1185      C1460   1.415   1_554  A
C1185      C1186   1.426       .  A
C1186      F1190   1.358       .  S
C1187      C1192   1.398   1_554  A
C1187      C1196   1.395       .  A
C1192      C1193   1.396       .  A
C1192      F1197   1.355       .  S
C1193      C1194   1.420   1_556  A
C1193      H1198   1.073       .  S
C1194      C1195   1.421       .  A
C1195      C1196   1.389       .  A
C1195      F1199   1.356       .  S
C1196      H1200   1.085       .  S
C1201      C1202   1.398       .  A
C1201      C1206   1.395       .  A
C1201      H1211   1.084       .  S
C1202      C1479   1.402   1_554  A
C1202      C1207   1.491       .  S
C1203      C1478   1.402       .  A
C1203      C1204   1.405       .  A
C1203      F1208   1.353       .  S
C1204      C1481   1.420       .  A
C1204      H1209   1.075       .  S
C1205      C1480   1.420   1_554  A
C1205      C1206   1.424       .  A
C1206      F1210   1.356       .  S
C1207      C1212   1.400       .  A
C1207      C1216   1.401       .  A
C1212      C1213   1.395       .  A
C1212      F1217   1.358       .  S
C1213      C1214   1.420       .  A
C1213      H1218   1.078       .  S
C1214      C1215   1.428       .  A
C1215      C1216   1.407       .  A
C1215      F1219   1.358       .  S
C1216      H1220   1.083       .  S
C1221      C1774   1.398       .  A
C1221      C1226   1.399       .  A
C1221      H1231   1.084       .  S
C1222      C1773   1.398   1_545  A
C1222      C1223   1.401       .  A
C1222      C1227   1.487       .  S
C1223      C1224   1.400       .  A
C1223      F1228   1.355       .  S
C1224      C1225   1.417       .  A
C1224      H1229   1.083       .  S
C1225      C1660   1.562   1_545  S
C1225      C1778   1.427   1_545  A
C1226      C1777   1.427       .  A
C1226      F1230   1.351       .  S
C1227      C1232   1.401       .  A
C1227      C1788   1.398   1_545  A
C1232      C1233   1.400       .  A
C1232      F1237   1.356       .  S
C1233      C1234   1.416       .  A
C1233      H1238   1.084       .  S
C1234      C1664   1.561   1_545  S
C1234      C1787   1.427   1_545  A
C1235      C1786   1.427       .  A
C1235      C1236   1.398       .  A
C1235      F1239   1.352       .  S
C1236      C1779   1.398       .  A
C1236      H1240   1.085       .  S
C1241      C1242   1.402       .  A
C1241      C1246   1.400       .  A
C1241      H1251   1.083       .  S
C1242      C1243   1.396       .  A
C1242      C1247   1.477       .  S
C1243      C1244   1.394       .  A
C1243      F1248   1.358       .  S
C1244      C1245   1.420       .  A
C1244      H1249   1.075       .  S
C1245      C1246   1.419       .  A
C1246      F1250   1.356       .  S
C1247      C1252   1.403       .  A
C1247      C1256   1.391       .  A
C1252      C1253   1.405       .  A
C1252      F1257   1.357       .  S
C1253      C1254   1.417       .  A
C1253      H1258   1.081       .  S
C1254      C1255   1.429       .  A
C1255      C1256   1.388       .  A
C1255      F1259   1.355       .  S
C1256      H1260   1.085       .  S
C1261      C1262   1.409       .  A
C1261      C1266   1.395       .  A
C1261      H1271   1.080       .  S
C1262      C1263   1.417       .  A
C1262      C1267   1.508       .  S
C1263      C1264   1.401       .  A
C1263      F1268   1.355       .  S
C1264      C1265   1.411       .  A
C1264      H1269   1.083       .  S
C1265      C1266   1.416       .  A
C1266      F1270   1.356       .  S
C1267      C1272   1.411       .  A
C1267      C1276   1.408       .  A
C1272      C1273   1.391       .  A
C1272      F1277   1.357       .  S
C1273      C1274   1.417       .  A
C1273      H1278   1.078       .  S
C1274      C1275   1.422       .  A
C1275      C1276   1.402       .  A
C1275      F1279   1.357       .  S
C1276      H1280   1.079       .  S
C1281      C1282   1.392       .  A
C1281      C1286   1.390       .  A
C1281      H1291   1.084       .  S
C1282      C1283   1.401       .  A
C1282      C1287   1.470       .  S
C1283      C1284   1.398       .  A
C1283      F1288   1.356       .  S
C1284      C1285   1.415       .  A
C1284      H1289   1.082       .  S
C1285      C1286   1.428       .  A
C1286      F1290   1.354       .  S
C1287      C1292   1.393       .  A
C1287      C1296   1.399       .  A
C1292      C1293   1.388       .  A
C1292      F1297   1.359       .  S
C1293      C1294   1.420       .  A
C1293      H1298   1.075       .  S
C1294      C1295   1.421       .  A
C1295      C1296   1.402       .  A
C1295      F1299   1.355       .  S
C1296      H1300   1.083       .  S
C1301      C1302   1.403       .  A
C1301      C1306   1.400       .  A
C1301      H1311   1.076       .  S
C1302      C1303   1.409       .  A
C1302      C1307   1.506       .  S
C1303      C1304   1.399       .  A
C1303      F1308   1.357       .  S
C1304      C1305   1.419       .  A
C1304      H1309   1.080       .  S
C1305      C1306   1.412       .  A
C1306      F1310   1.346       .  S
C1307      C1312   1.411       .  A
C1307      C1316   1.403       .  A
C1312      C1313   1.405       .  A
C1312      F1317   1.357       .  S
C1313      C1314   1.419       .  A
C1313      H1318   1.074       .  S
C1314      C1315   1.422       .  A
C1315      C1316   1.394       .  A
C1315      F1319   1.356       .  S
C1316      H1320   1.081       .  S
C1321      C1322   1.402       .  A
C1321      C1326   1.402       .  A
C1321      H1331   1.081       .  S
C1322      C1323   1.397       .  A
C1322      C1327   1.484       .  S
C1323      C1324   1.392       .  A
C1323      F1328   1.358       .  S
C1324      C1325   1.422       .  A
C1324      H1329   1.075       .  S
C1325      C1326   1.416       .  A
C1326      F1330   1.357       .  S
C1327      C1332   1.403       .  A
C1327      C1336   1.394       .  A
C1332      C1333   1.400       .  A
C1332      F1337   1.355       .  S
C1333      C1334   1.415       .  A
C1333      H1338   1.082       .  S
C1334      C1335   1.430       .  A
C1335      C1336   1.394       .  A
C1335      F1339   1.353       .  S
C1336      H1340   1.084       .  S
C1341      C1342   1.399       .  A
C1341      C1346   1.402       .  A
C1341      H1351   1.083       .  S
C1342      C1343   1.403       .  A
C1342      C1347   1.488       .  S
C1343      C1344   1.398       .  A
C1343      F1348   1.358       .  S
C1344      C1345   1.418       .  A
C1344      H1349   1.079       .  S
C1345      C1346   1.428       .  A
C1346      F1350   1.357       .  S
C1347      C1352   1.401       .  A
C1347      C1356   1.397       .  A
C1352      C1353   1.400       .  A
C1352      F1357   1.350       .  S
C1353      C1354   1.418       .  A
C1353      H1358   1.075       .  S
C1354      C1355   1.425       .  A
C1355      C1356   1.395       .  A
C1355      F1359   1.355       .  S
C1356      H1360   1.084       .  S
C1361      C1362   1.393       .  A
C1361      C1366   1.387       .  A
C1361      H1371   1.084       .  S
C1362      C1363   1.399       .  A
C1362      C1367   1.466       .  S
C1363      C1364   1.400       .  A
C1363      F1368   1.357       .  S
C1364      C1365   1.420       .  A
C1364      H1369   1.083       .  S
C1365      C1366   1.424       .  A
C1366      F1370   1.354       .  S
C1367      C1372   1.395       .  A
C1367      C1376   1.393       .  A
C1372      C1373   1.387       .  A
C1372      F1377   1.358       .  S
C1373      C1374   1.417       .  A
C1373      H1378   1.078       .  S
C1374      C1375   1.426       .  A
C1375      C1376   1.397       .  A
C1375      F1379   1.345       .  S
C1376      H1380   1.080       .  S
C1381      C1415   1.552       .  S
C1381      C1610   1.561       .  S
C1381      C1630   1.569       .  S
C1381      C1641   1.562       .  S
C1382      C1402   1.548       .  S
C1382      C1561   1.555       .  S
C1382      C1581   1.568       .  S
C1382      C1621   1.570       .  S
C1383      C1399   1.545       .  S
C1383      C1530   1.564       .  S
C1383      C1541   1.562       .  S
C1383      C1650   1.562       .  S
C1384      C1966   1.554       .  S
C1384      C2053   1.562       .  S
C1384      C1550   1.572       .  S
C1384      C1590   1.579       .  S
C1385      C1461   1.566       .  S
C1385      C1481   1.576       .  S
C1385      C1601   1.561       .  S
C1386      C1441   1.566       .  S
C1386      C1470   1.558       .  S
C1386      C1570   1.561       .  S
C1387      C1421   1.568       .  S
C1387      C1490   1.580       .  S
C1387      C1521   1.559       .  S
C1388      C1692   1.553       .  S
C1388      C1430   1.583       .  S
C1388      C1450   1.569       .  S
C1388      C2062   1.561       .  S
O1389      V1397   1.913   1_655  S
O1389      C1399   1.266       .  A
O1390      C1400   1.266   1_556  A
O1391      V1397   1.897   1_655  S
O1391      C1401   1.262   1_556  A
O1392      C1402   1.263       .  A
O1393      C1402   1.273       .  A
O1394      V1398   1.918   1_655  S
O1394      C1401   1.272   1_556  A
O1395      C1400   1.269   1_556  A
O1396      V1398   1.906   1_655  S
O1396      C1399   1.269       .  A
V1397      V1398   2.053       .  T
O1403      V1411   1.905       .  S
O1403      C1413   1.264       .  A
O1404      V1411   1.910       .  S
O1404      C1414   1.269       .  A
O1405      V1411   1.908       .  S
O1405      C1415   1.269       .  A
O1406      V1411   1.903       .  S
O1406      C1416   1.260       .  A
O1407      V1412   1.911       .  S
O1407      C1416   1.270       .  A
O1408      V1412   1.908       .  S
O1408      C1415   1.265       .  A
O1409      V1412   1.903       .  S
O1409      C1414   1.261       .  A
O1410      V1412   1.905       .  S
O1410      C1413   1.268       .  A
V1411      V1412   2.072       .  T
C1414      C1936   1.554   1_545  S
C1416      C1664   1.553   1_546  S
C1417      C1418   1.408       .  A
C1417      C1422   1.401       .  A
C1417      H1427   1.080       .  S
C1418      C1423   1.519       .  S
C1419      C1420   1.400       .  A
C1419      F1424   1.349   1_554  S
C1420      H1425   1.079   1_554  S
C1421      C1422   1.421       .  A
C1422      F1426   1.356       .  S
C1423      C1428   1.412       .  A
C1423      C1432   1.411       .  A
C1428      C1429   1.397       .  A
C1428      F1433   1.357       .  S
C1429      C1430   1.418       .  A
C1429      H1434   1.082       .  S
C1430      C1431   1.422       .  A
C1431      C1432   1.406       .  A
C1431      F1435   1.349       .  S
C1432      H1436   1.077       .  S
C1437      C1442   1.394       .  A
C1437      H1447   1.079       .  S
C1438      C1439   1.417       .  A
C1438      C1443   1.510       .  S
C1439      C1440   1.399       .  A
C1439      F1444   1.355       .  S
C1440      C1441   1.410       .  A
C1440      H1445   1.083       .  S
C1442      F1446   1.356       .  S
C1443      C1448   1.414       .  A
C1443      C1452   1.409       .  A
C1448      C1449   1.391       .  A
C1448      F1453   1.356       .  S
C1449      C1450   1.414       .  A
C1449      H1454   1.080       .  S
C1450      C1451   1.421       .  A
C1451      C1452   1.401       .  A
C1451      F1455   1.357       .  S
C1452      H1456   1.079       .  S
C1457      C1458   1.397       .  A
C1457      C1462   1.400       .  A
C1457      H1467   1.083       .  S
C1458      C1463   1.472       .  S
C1459      C1460   1.389       .  A
C1459      F1464   1.358       .  S
C1460      H1465   1.079       .  S
C1461      C1462   1.426       .  A
C1462      F1466   1.358       .  S
C1463      C1468   1.398       .  A
C1463      C1472   1.395       .  A
C1468      C1469   1.396       .  A
C1468      F1473   1.354       .  S
C1469      C1470   1.420       .  A
C1469      H1474   1.073       .  S
C1470      C1471   1.421       .  A
C1471      C1472   1.389       .  A
C1471      F1475   1.356       .  S
C1472      H1476   1.084       .  S
C1477      C1478   1.398       .  A
C1477      C1482   1.394       .  A
C1477      H1487   1.084       .  S
C1478      C1483   1.491       .  S
C1479      C1480   1.404       .  A
C1479      F1484   1.353       .  S
C1480      H1485   1.074       .  S
C1481      C1482   1.424       .  A
C1482      F1486   1.356       .  S
C1483      C1488   1.400       .  A
C1483      C1492   1.401       .  A
C1488      C1489   1.394       .  A
C1488      F1493   1.358       .  S
C1489      C1490   1.420       .  A
C1489      H1494   1.078       .  S
C1490      C1491   1.428       .  A
C1491      C1492   1.408       .  A
C1491      F1495   1.358       .  S
C1492      H1496   1.083       .  S
C1497      C2050   1.398       .  A
C1497      C1502   1.399       .  A
C1497      H1507   1.084       .  S
C1498      C2049   1.398   1_545  A
C1498      C1499   1.401       .  A
C1498      C1503   1.487       .  S
C1499      C1500   1.401       .  A
C1499      F1504   1.355       .  S
C1500      C1501   1.418       .  A
C1500      H1505   1.083       .  S
C1501      C1936   1.562   1_545  S
C1501      C2054   1.427   1_545  A
C1502      C2053   1.427       .  A
C1502      F1506   1.351       .  S
C1503      C1508   1.401       .  A
C1503      C2064   1.398   1_545  A
C1508      C1509   1.399       .  A
C1508      F1513   1.356       .  S
C1509      C1510   1.416       .  A
C1509      H1514   1.084       .  S
C1510      C1940   1.561   1_545  S
C1510      C2063   1.427   1_545  A
C1511      C2062   1.427       .  A
C1511      C1512   1.399       .  A
C1511      F1515   1.352       .  S
C1512      C2055   1.398       .  A
C1512      H1516   1.085       .  S
C1517      C1518   1.402       .  A
C1517      C1522   1.400       .  A
C1517      H1527   1.083       .  S
C1518      C1519   1.396       .  A
C1518      C1523   1.477       .  S
C1519      C1520   1.395       .  A
C1519      F1524   1.358       .  S
C1520      C1521   1.420       .  A
C1520      H1525   1.075       .  S
C1521      C1522   1.420       .  A
C1522      F1526   1.356       .  S
C1523      C1528   1.403       .  A
C1523      C1532   1.391       .  A
C1528      C1529   1.405       .  A
C1528      F1533   1.357       .  S
C1529      C1530   1.417       .  A
C1529      H1534   1.081       .  S
C1530      C1531   1.429       .  A
C1531      C1532   1.388       .  A
C1531      F1535   1.355       .  S
C1532      H1536   1.085       .  S
C1537      C1538   1.409       .  A
C1537      C1542   1.394       .  A
C1537      H1547   1.080       .  S
C1538      C1539   1.417       .  A
C1538      C1543   1.508       .  S
C1539      C1540   1.401       .  A
C1539      F1544   1.355       .  S
C1540      C1541   1.411       .  A
C1540      H1545   1.083       .  S
C1541      C1542   1.416       .  A
C1542      F1546   1.356       .  S
C1543      C1548   1.411       .  A
C1543      C1552   1.408       .  A
C1548      C1549   1.391       .  A
C1548      F1553   1.357       .  S
C1549      C1550   1.417       .  A
C1549      H1554   1.079       .  S
C1550      C1551   1.422       .  A
C1551      C1552   1.402       .  A
C1551      F1555   1.358       .  S
C1552      H1556   1.079       .  S
C1557      C1558   1.392       .  A
C1557      C1562   1.390       .  A
C1557      H1567   1.085       .  S
C1558      C1559   1.401       .  A
C1558      C1563   1.470       .  S
C1559      C1560   1.399       .  A
C1559      F1564   1.356       .  S
C1560      C1561   1.415       .  A
C1560      H1565   1.082       .  S
C1561      C1562   1.429       .  A
C1562      F1566   1.354       .  S
C1563      C1568   1.393       .  A
C1563      C1572   1.400       .  A
C1568      C1569   1.389       .  A
C1568      F1573   1.359       .  S
C1569      C1570   1.420       .  A
C1569      H1574   1.075       .  S
C1570      C1571   1.421       .  A
C1571      C1572   1.402       .  A
C1571      F1575   1.356       .  S
C1572      H1576   1.083       .  S
C1577      C1578   1.403       .  A
C1577      C1582   1.399       .  A
C1577      H1587   1.076       .  S
C1578      C1579   1.409       .  A
C1578      C1583   1.505       .  S
C1579      C1580   1.398       .  A
C1579      F1584   1.357       .  S
C1580      C1581   1.418       .  A
C1580      H1585   1.080       .  S
C1581      C1582   1.413       .  A
C1582      F1586   1.346       .  S
C1583      C1588   1.412       .  A
C1583      C1592   1.403       .  A
C1588      C1589   1.405       .  A
C1588      F1593   1.357       .  S
C1589      C1590   1.419       .  A
C1589      H1594   1.074       .  S
C1590      C1591   1.422       .  A
C1591      C1592   1.393       .  A
C1591      F1595   1.356       .  S
C1592      H1596   1.081       .  S
C1597      C1598   1.402       .  A
C1597      C1602   1.402       .  A
C1597      H1607   1.081       .  S
C1598      C1599   1.398       .  A
C1598      C1603   1.484       .  S
C1599      C1600   1.392       .  A
C1599      F1604   1.358       .  S
C1600      C1601   1.422       .  A
C1600      H1605   1.075       .  S
C1601      C1602   1.416       .  A
C1602      F1606   1.357       .  S
C1603      C1608   1.402       .  A
C1603      C1612   1.394       .  A
C1608      C1609   1.400       .  A
C1608      F1613   1.354       .  S
C1609      C1610   1.414       .  A
C1609      H1614   1.082       .  S
C1610      C1611   1.430       .  A
C1611      C1612   1.395       .  A
C1611      F1615   1.353       .  S
C1612      H1616   1.084       .  S
C1617      C1618   1.398       .  A
C1617      C1622   1.402       .  A
C1617      H1627   1.083       .  S
C1618      C1619   1.403       .  A
C1618      C1623   1.487       .  S
C1619      C1620   1.398       .  A
C1619      F1624   1.358       .  S
C1620      C1621   1.418       .  A
C1620      H1625   1.079       .  S
C1621      C1622   1.428       .  A
C1622      F1626   1.357       .  S
C1623      C1628   1.401       .  A
C1623      C1632   1.397       .  A
C1628      C1629   1.400       .  A
C1628      F1633   1.350       .  S
C1629      C1630   1.418       .  A
C1629      H1634   1.075       .  S
C1630      C1631   1.426       .  A
C1631      C1632   1.395       .  A
C1631      F1635   1.354       .  S
C1632      H1636   1.084       .  S
C1637      C1638   1.393       .  A
C1637      C1642   1.388       .  A
C1637      H1647   1.084       .  S
C1638      C1639   1.399       .  A
C1638      C1643   1.467       .  S
C1639      C1640   1.400       .  A
C1639      F1644   1.357       .  S
C1640      C1641   1.419       .  A
C1640      H1645   1.083       .  S
C1641      C1642   1.424       .  A
C1642      F1646   1.354       .  S
C1643      C1648   1.395       .  A
C1643      C1652   1.393       .  A
C1648      C1649   1.387       .  A
C1648      F1653   1.358       .  S
C1649      C1650   1.417       .  A
C1649      H1654   1.078       .  S
C1650      C1651   1.427       .  A
C1651      C1652   1.397       .  A
C1651      F1655   1.345       .  S
C1652      H1656   1.080       .  S
C1657      C1691   1.552       .  S
C1657      C1886   1.561       .  S
C1657      C1906   1.569       .  S
C1657      C1917   1.561       .  S
C1658      C1678   1.549       .  S
C1658      C1837   1.555       .  S
C1658      C1857   1.569       .  S
C1658      C1897   1.571       .  S
C1659      C1675   1.545       .  S
C1659      C1806   1.564       .  S
C1659      C1817   1.562       .  S
C1659      C1926   1.562       .  S
C1660      C1826   1.572       .  S
C1660      C1866   1.580       .  S
C1661      C1965   1.550   1_554  S
C1661      C1737   1.565       .  S
C1661      C1757   1.576       .  S
C1661      C1877   1.560       .  S
C1662      C1952   1.546       .  S
C1662      C1717   1.566       .  S
C1662      C1746   1.558       .  S
C1662      C1846   1.560       .  S
C1663      C1953   1.546       .  S
C1663      C1697   1.568       .  S
C1663      C1766   1.580       .  S
C1663      C1797   1.559       .  S
C1664      C1706   1.583       .  S
C1664      C1726   1.569       .  S
O1665      V1673   1.912   1_655  S
O1665      C1675   1.266       .  A
O1666      C1676   1.265       .  A
O1667      V1673   1.897   1_655  S
O1667      C1677   1.262       .  A
O1668      C1678   1.263       .  A
O1669      C1678   1.273       .  A
O1670      V1674   1.918   1_655  S
O1670      C1677   1.272       .  A
O1671      C1676   1.269       .  A
O1672      V1674   1.907   1_655  S
O1672      C1675   1.270       .  A
V1673      V1674   2.055       .  T
C1676      C1938   1.545       .  S
C1677      C1939   1.547       .  S
O1679      V1687   1.906       .  S
O1679      C1689   1.264       .  A
O1680      V1687   1.910       .  S
O1680      C1690   1.269       .  A
O1681      V1687   1.907       .  S
O1681      C1691   1.269       .  A
O1682      V1687   1.903       .  S
O1682      C1692   1.260       .  A
O1683      V1688   1.910       .  S
O1683      C1692   1.270       .  A
O1684      V1688   1.908       .  S
O1684      C1691   1.264       .  A
O1685      V1688   1.903       .  S
O1685      C1690   1.261       .  A
O1686      V1688   1.906       .  S
O1686      C1689   1.268       .  A
V1687      V1688   2.072       .  T
C1689      C1937   1.550       .  S
C1693      C1694   1.408       .  A
C1693      C1698   1.401       .  A
C1693      H1703   1.080       .  S
C1694      C1971   1.412       .  A
C1694      C1699   1.518       .  S
C1695      C1970   1.413       .  A
C1695      C1696   1.400       .  A
C1695      F1700   1.348       .  S
C1696      C1973   1.412       .  A
C1696      H1701   1.079       .  S
C1697      C1972   1.412       .  A
C1697      C1698   1.421       .  A
C1698      F1702   1.356       .  S
C1699      C1704   1.412       .  A
C1699      C1708   1.411       .  A
C1704      C1705   1.396       .  A
C1704      F1709   1.357       .  S
C1705      C1706   1.418       .  A
C1705      H1710   1.082       .  S
C1706      C1707   1.422   1_554  A
C1707      C1708   1.406   1_556  A
C1707      F1711   1.349       .  S
C1708      H1712   1.077   1_554  S
C1713      C1990   1.407       .  A
C1713      C1718   1.394       .  A
C1713      H1723   1.079       .  S
C1714      C1989   1.407       .  A
C1714      C1715   1.417   1_556  A
C1714      C1719   1.511       .  S
C1715      C1716   1.400       .  A
C1715      F1720   1.355       .  S
C1716      C1717   1.411       .  A
C1716      H1721   1.083       .  S
C1717      C1994   1.419   1_554  A
C1718      C1993   1.420       .  A
C1718      F1722   1.356       .  S
C1719      C1724   1.414       .  A
C1719      C1728   1.409   1_556  A
C1724      C1725   1.391       .  A
C1724      F1729   1.356       .  S
C1725      C1726   1.414   1_556  A
C1725      H1730   1.080       .  S
C1726      C1727   1.421       .  A
C1727      C1728   1.401       .  A
C1727      F1731   1.358   1_565  S
C1728      H1732   1.079       .  S
C1733      C1734   1.397       .  A
C1733      C1738   1.400       .  A
C1733      H1743   1.083       .  S
C1734      C2011   1.399   1_554  A
C1734      C1739   1.471       .  S
C1735      C2010   1.399       .  A
C1735      C1736   1.390       .  A
C1735      F1740   1.358       .  S
C1736      C2013   1.415       .  A
C1736      H1741   1.079       .  S
C1737      C2012   1.415   1_554  A
C1737      C1738   1.426       .  A
C1738      F1742   1.358       .  S
C1739      C1744   1.398   1_554  A
C1739      C1748   1.395       .  A
C1744      C1745   1.396       .  A
C1744      F1749   1.355       .  S
C1745      C1746   1.420   1_556  A
C1745      H1750   1.073       .  S
C1746      C1747   1.421       .  A
C1747      C1748   1.389       .  A
C1747      F1751   1.356       .  S
C1748      H1752   1.085       .  S
C1753      C1754   1.398       .  A
C1753      C1758   1.395       .  A
C1753      H1763   1.084       .  S
C1754      C2031   1.402   1_554  A
C1754      C1759   1.491       .  S
C1755      C2030   1.402       .  A
C1755      C1756   1.405       .  A
C1755      F1760   1.353       .  S
C1756      C2033   1.420       .  A
C1756      H1761   1.075       .  S
C1757      C2032   1.420   1_554  A
C1757      C1758   1.424       .  A
C1758      F1762   1.356       .  S
C1759      C1764   1.400       .  A
C1759      C1768   1.401       .  A
C1764      C1765   1.394       .  A
C1764      F1769   1.358       .  S
C1765      C1766   1.420       .  A
C1765      H1770   1.078       .  S
C1766      C1767   1.428       .  A
C1767      C1768   1.407       .  A
C1767      F1771   1.358       .  S
C1768      H1772   1.083       .  S
C1773      C1778   1.399       .  A
C1773      H1783   1.084       .  S
C1774      C1775   1.401       .  A
C1774      C1779   1.487       .  S
C1775      C1776   1.400       .  A
C1775      F1780   1.355       .  S
C1776      C1777   1.417       .  A
C1776      H1781   1.083       .  S
C1778      F1782   1.351       .  S
C1779      C1784   1.401       .  A
C1784      C1785   1.400       .  A
C1784      F1789   1.356       .  S
C1785      C1786   1.416       .  A
C1785      H1790   1.084       .  S
C1787      C1788   1.398       .  A
C1787      F1791   1.352       .  S
C1788      H1792   1.085       .  S
C1793      C1794   1.402       .  A
C1793      C1798   1.400       .  A
C1793      H1803   1.083       .  S
C1794      C1795   1.396       .  A
C1794      C1799   1.477       .  S
C1795      C1796   1.394       .  A
C1795      F1800   1.358       .  S
C1796      C1797   1.420       .  A
C1796      H1801   1.075       .  S
C1797      C1798   1.419       .  A
C1798      F1802   1.356       .  S
C1799      C1804   1.403       .  A
C1799      C1808   1.391       .  A
C1804      C1805   1.405       .  A
C1804      F1809   1.357       .  S
C1805      C1806   1.417       .  A
C1805      H1810   1.081       .  S
C1806      C1807   1.429       .  A
C1807      C1808   1.388       .  A
C1807      F1811   1.355       .  S
C1808      H1812   1.085       .  S
C1813      C1814   1.409       .  A
C1813      C1818   1.395       .  A
C1813      H1823   1.080       .  S
C1814      C1815   1.417       .  A
C1814      C1819   1.508       .  S
C1815      C1816   1.401       .  A
C1815      F1820   1.355       .  S
C1816      C1817   1.411       .  A
C1816      H1821   1.083       .  S
C1817      C1818   1.416       .  A
C1818      F1822   1.356       .  S
C1819      C1824   1.411       .  A
C1819      C1828   1.408       .  A
C1824      C1825   1.391       .  A
C1824      F1829   1.357       .  S
C1825      C1826   1.417       .  A
C1825      H1830   1.078       .  S
C1826      C1827   1.422       .  A
C1827      C1828   1.402       .  A
C1827      F1831   1.357   1_565  S
C1828      H1832   1.079       .  S
C1833      C1834   1.392       .  A
C1833      C1838   1.390       .  A
C1833      H1843   1.084       .  S
C1834      C1835   1.401       .  A
C1834      C1839   1.470       .  S
C1835      C1836   1.398       .  A
C1835      F1840   1.356       .  S
C1836      C1837   1.415       .  A
C1836      H1841   1.082       .  S
C1837      C1838   1.428       .  A
C1838      F1842   1.354       .  S
C1839      C1844   1.393       .  A
C1839      C1848   1.399       .  A
C1844      C1845   1.388       .  A
C1844      F1849   1.359       .  S
C1845      C1846   1.420       .  A
C1845      H1850   1.075       .  S
C1846      C1847   1.421       .  A
C1847      C1848   1.402       .  A
C1847      F1851   1.355       .  S
C1848      H1852   1.083       .  S
C1853      C1854   1.403       .  A
C1853      C1858   1.400       .  A
C1853      H1863   1.076       .  S
C1854      C1855   1.409       .  A
C1854      C1859   1.506       .  S
C1855      C1856   1.399       .  A
C1855      F1860   1.357       .  S
C1856      C1857   1.419       .  A
C1856      H1861   1.080       .  S
C1857      C1858   1.412       .  A
C1858      F1862   1.346       .  S
C1859      C1864   1.411       .  A
C1859      C1868   1.403       .  A
C1864      C1865   1.405       .  A
C1864      F1869   1.357       .  S
C1865      C1866   1.419       .  A
C1865      H1870   1.074       .  S
C1866      C1867   1.422       .  A
C1867      C1868   1.394       .  A
C1867      F1871   1.356       .  S
C1868      H1872   1.081       .  S
C1873      C1874   1.402       .  A
C1873      C1878   1.402       .  A
C1873      H1883   1.081       .  S
C1874      C1875   1.397       .  A
C1874      C1879   1.484       .  S
C1875      C1876   1.392       .  A
C1875      F1880   1.358       .  S
C1876      C1877   1.422       .  A
C1876      H1881   1.075       .  S
C1877      C1878   1.416       .  A
C1878      F1882   1.357       .  S
C1879      C1884   1.403       .  A
C1879      C1888   1.394       .  A
C1884      C1885   1.400       .  A
C1884      F1889   1.355       .  S
C1885      C1886   1.415       .  A
C1885      H1890   1.082       .  S
C1886      C1887   1.430       .  A
C1887      C1888   1.394       .  A
C1887      F1891   1.353       .  S
C1888      H1892   1.084       .  S
C1893      C1894   1.399       .  A
C1893      C1898   1.402       .  A
C1893      H1903   1.083       .  S
C1894      C1895   1.403       .  A
C1894      C1899   1.488       .  S
C1895      C1896   1.398       .  A
C1895      F1900   1.358       .  S
C1896      C1897   1.418       .  A
C1896      H1901   1.079       .  S
C1897      C1898   1.428       .  A
C1898      F1902   1.357       .  S
C1899      C1904   1.401       .  A
C1899      C1908   1.397       .  A
C1904      C1905   1.400       .  A
C1904      F1909   1.350       .  S
C1905      C1906   1.418       .  A
C1905      H1910   1.075       .  S
C1906      C1907   1.425       .  A
C1907      C1908   1.395       .  A
C1907      F1911   1.355       .  S
C1908      H1912   1.084       .  S
C1913      C1914   1.393       .  A
C1913      C1918   1.387       .  A
C1913      H1923   1.084       .  S
C1914      C1915   1.399       .  A
C1914      C1919   1.466       .  S
C1915      C1916   1.400       .  A
C1915      F1920   1.357       .  S
C1916      C1917   1.420       .  A
C1916      H1921   1.083       .  S
C1917      C1918   1.424       .  A
C1918      F1922   1.354       .  S
C1919      C1924   1.395       .  A
C1919      C1928   1.393       .  A
C1924      C1925   1.387       .  A
C1924      F1929   1.358       .  S
C1925      C1926   1.417       .  A
C1925      H1930   1.078       .  S
C1926      C1927   1.426       .  A
C1927      C1928   1.397       .  A
C1927      F1931   1.345       .  S
C1928      H1932   1.080       .  S
C1933      C1967   1.552       .  S
C1933      C2162   1.561       .  S
C1933      C2182   1.569       .  S
C1933      C2193   1.562       .  S
C1934      C1954   1.548       .  S
C1934      C2113   1.555       .  S
C1934      C2133   1.568       .  S
C1934      C2173   1.570       .  S
C1935      C1951   1.545       .  S
C1935      C2082   1.564       .  S
C1935      C2093   1.562       .  S
C1935      C2202   1.562       .  S
C1936      C2102   1.572       .  S
C1936      C2142   1.579       .  S
C1937      C2013   1.566       .  S
C1937      C2033   1.576       .  S
C1937      C2153   1.561       .  S
C1938      C1993   1.566       .  S
C1938      C2022   1.558       .  S
C1938      C2122   1.561       .  S
C1939      C1973   1.568       .  S
C1939      C2042   1.580       .  S
C1939      C2073   1.559       .  S
C1940      C1982   1.583       .  S
C1940      C2002   1.569       .  S
O1941      V1949   1.913   1_655  S
O1941      C1951   1.266       .  A
O1942      C1952   1.266   1_556  A
O1943      V1949   1.897   1_655  S
O1943      C1953   1.262   1_556  A
O1944      C1954   1.263       .  A
O1945      C1954   1.273       .  A
O1946      V1950   1.918   1_655  S
O1946      C1953   1.272   1_556  A
O1947      C1952   1.269   1_556  A
O1948      V1950   1.906   1_655  S
O1948      C1951   1.269       .  A
V1949      V1950   2.053       .  T
O1955      V1963   1.905       .  S
O1955      C1965   1.264       .  A
O1956      V1963   1.910       .  S
O1956      C1966   1.269       .  A
O1957      V1963   1.908       .  S
O1957      C1967   1.269       .  A
O1958      V1963   1.903       .  S
O1958      C1968   1.260       .  A
O1959      V1964   1.911       .  S
O1959      C1968   1.270       .  A
O1960      V1964   1.908       .  S
O1960      C1967   1.265       .  A
O1961      V1964   1.903       .  S
O1961      C1966   1.261       .  A
O1962      V1964   1.905       .  S
O1962      C1965   1.268       .  A
V1963      V1964   2.072       .  T
C1969      C1970   1.408       .  A
C1969      C1974   1.401       .  A
C1969      H1979   1.080       .  S
C1970      C1975   1.519       .  S
C1971      C1972   1.400       .  A
C1971      F1976   1.349   1_554  S
C1972      H1977   1.079   1_554  S
C1973      C1974   1.421       .  A
C1974      F1978   1.356       .  S
C1975      C1980   1.412       .  A
C1975      C1984   1.411       .  A
C1980      C1981   1.397       .  A
C1980      F1985   1.357       .  S
C1981      C1982   1.418       .  A
C1981      H1986   1.082       .  S
C1982      C1983   1.422       .  A
C1983      C1984   1.406       .  A
C1983      F1987   1.349       .  S
C1984      H1988   1.077       .  S
C1989      C1994   1.394       .  A
C1989      H1999   1.079       .  S
C1990      C1991   1.417       .  A
C1990      C1995   1.510       .  S
C1991      C1992   1.399       .  A
C1991      F1996   1.355       .  S
C1992      C1993   1.410       .  A
C1992      H1997   1.083       .  S
C1994      F1998   1.356       .  S
C1995      C2000   1.414       .  A
C1995      C2004   1.409       .  A
C2000      C2001   1.391       .  A
C2000      F2005   1.356       .  S
C2001      C2002   1.414       .  A
C2001      H2006   1.080       .  S
C2002      C2003   1.421       .  A
C2003      C2004   1.401       .  A
C2003      F2007   1.357   1_565  S
C2004      H2008   1.079       .  S
C2009      C2010   1.397       .  A
C2009      C2014   1.400       .  A
C2009      H2019   1.083       .  S
C2010      C2015   1.472       .  S
C2011      C2012   1.389       .  A
C2011      F2016   1.358       .  S
C2012      H2017   1.079       .  S
C2013      C2014   1.426       .  A
C2014      F2018   1.358       .  S
C2015      C2020   1.398       .  A
C2015      C2024   1.395       .  A
C2020      C2021   1.396       .  A
C2020      F2025   1.354       .  S
C2021      C2022   1.420       .  A
C2021      H2026   1.073       .  S
C2022      C2023   1.421       .  A
C2023      C2024   1.389       .  A
C2023      F2027   1.356       .  S
C2024      H2028   1.084       .  S
C2029      C2030   1.398       .  A
C2029      C2034   1.394       .  A
C2029      H2039   1.084       .  S
C2030      C2035   1.491       .  S
C2031      C2032   1.404       .  A
C2031      F2036   1.353       .  S
C2032      H2037   1.074       .  S
C2033      C2034   1.424       .  A
C2034      F2038   1.356       .  S
C2035      C2040   1.400       .  A
C2035      C2044   1.401       .  A
C2040      C2041   1.394       .  A
C2040      F2045   1.358       .  S
C2041      C2042   1.420       .  A
C2041      H2046   1.078       .  S
C2042      C2043   1.428       .  A
C2043      C2044   1.408       .  A
C2043      F2047   1.358       .  S
C2044      H2048   1.083       .  S
C2049      C2054   1.399       .  A
C2049      H2059   1.084       .  S
C2050      C2051   1.401       .  A
C2050      C2055   1.487       .  S
C2051      C2052   1.401       .  A
C2051      F2056   1.355       .  S
C2052      C2053   1.418       .  A
C2052      H2057   1.083       .  S
C2054      F2058   1.351       .  S
C2055      C2060   1.401       .  A
C2060      C2061   1.399       .  A
C2060      F2065   1.356       .  S
C2061      C2062   1.416       .  A
C2061      H2066   1.084       .  S
C2063      C2064   1.399       .  A
C2063      F2067   1.352       .  S
C2064      H2068   1.085       .  S
C2069      C2070   1.402       .  A
C2069      C2074   1.400       .  A
C2069      H2079   1.083       .  S
C2070      C2071   1.396       .  A
C2070      C2075   1.477       .  S
C2071      C2072   1.395       .  A
C2071      F2076   1.358       .  S
C2072      C2073   1.420       .  A
C2072      H2077   1.075       .  S
C2073      C2074   1.420       .  A
C2074      F2078   1.356       .  S
C2075      C2080   1.403       .  A
C2075      C2084   1.391       .  A
C2080      C2081   1.405       .  A
C2080      F2085   1.357       .  S
C2081      C2082   1.417       .  A
C2081      H2086   1.081       .  S
C2082      C2083   1.429       .  A
C2083      C2084   1.388       .  A
C2083      F2087   1.355       .  S
C2084      H2088   1.085       .  S
C2089      C2090   1.409       .  A
C2089      C2094   1.394       .  A
C2089      H2099   1.080       .  S
C2090      C2091   1.417       .  A
C2090      C2095   1.508       .  S
C2091      C2092   1.401       .  A
C2091      F2096   1.355       .  S
C2092      C2093   1.411       .  A
C2092      H2097   1.083       .  S
C2093      C2094   1.416       .  A
C2094      F2098   1.356       .  S
C2095      C2100   1.411       .  A
C2095      C2104   1.408       .  A
C2100      C2101   1.391       .  A
C2100      F2105   1.357       .  S
C2101      C2102   1.417       .  A
C2101      H2106   1.079       .  S
C2102      C2103   1.422       .  A
C2103      C2104   1.402       .  A
C2103      F2107   1.358   1_565  S
C2104      H2108   1.079       .  S
C2109      C2110   1.392       .  A
C2109      C2114   1.390       .  A
C2109      H2119   1.085       .  S
C2110      C2111   1.401       .  A
C2110      C2115   1.470       .  S
C2111      C2112   1.399       .  A
C2111      F2116   1.356       .  S
C2112      C2113   1.415       .  A
C2112      H2117   1.082       .  S
C2113      C2114   1.429       .  A
C2114      F2118   1.354       .  S
C2115      C2120   1.393       .  A
C2115      C2124   1.400       .  A
C2120      C2121   1.389       .  A
C2120      F2125   1.359       .  S
C2121      C2122   1.420       .  A
C2121      H2126   1.075       .  S
C2122      C2123   1.421       .  A
C2123      C2124   1.402       .  A
C2123      F2127   1.356       .  S
C2124      H2128   1.083       .  S
C2129      C2130   1.403       .  A
C2129      C2134   1.399       .  A
C2129      H2139   1.076       .  S
C2130      C2131   1.409       .  A
C2130      C2135   1.505       .  S
C2131      C2132   1.398       .  A
C2131      F2136   1.357       .  S
C2132      C2133   1.418       .  A
C2132      H2137   1.080       .  S
C2133      C2134   1.413       .  A
C2134      F2138   1.346       .  S
C2135      C2140   1.412       .  A
C2135      C2144   1.403       .  A
C2140      C2141   1.405       .  A
C2140      F2145   1.357       .  S
C2141      C2142   1.419       .  A
C2141      H2146   1.074       .  S
C2142      C2143   1.422       .  A
C2143      C2144   1.393       .  A
C2143      F2147   1.356       .  S
C2144      H2148   1.081       .  S
C2149      C2150   1.402       .  A
C2149      C2154   1.402       .  A
C2149      H2159   1.081       .  S
C2150      C2151   1.398       .  A
C2150      C2155   1.484       .  S
C2151      C2152   1.392       .  A
C2151      F2156   1.358       .  S
C2152      C2153   1.422       .  A
C2152      H2157   1.075       .  S
C2153      C2154   1.416       .  A
C2154      F2158   1.357       .  S
C2155      C2160   1.402       .  A
C2155      C2164   1.394       .  A
C2160      C2161   1.400       .  A
C2160      F2165   1.354       .  S
C2161      C2162   1.414       .  A
C2161      H2166   1.082       .  S
C2162      C2163   1.430       .  A
C2163      C2164   1.395       .  A
C2163      F2167   1.353       .  S
C2164      H2168   1.084       .  S
C2169      C2170   1.398       .  A
C2169      C2174   1.402       .  A
C2169      H2179   1.083       .  S
C2170      C2171   1.403       .  A
C2170      C2175   1.487       .  S
C2171      C2172   1.398       .  A
C2171      F2176   1.358       .  S
C2172      C2173   1.418       .  A
C2172      H2177   1.079       .  S
C2173      C2174   1.428       .  A
C2174      F2178   1.357       .  S
C2175      C2180   1.401       .  A
C2175      C2184   1.397       .  A
C2180      C2181   1.400       .  A
C2180      F2185   1.350       .  S
C2181      C2182   1.418       .  A
C2181      H2186   1.075       .  S
C2182      C2183   1.426       .  A
C2183      C2184   1.395       .  A
C2183      F2187   1.355       .  S
C2184      H2188   1.084       .  S
C2189      C2190   1.393       .  A
C2189      C2194   1.388       .  A
C2189      H2199   1.084       .  S
C2190      C2191   1.399       .  A
C2190      C2195   1.467       .  S
C2191      C2192   1.400       .  A
C2191      F2196   1.357       .  S
C2192      C2193   1.419       .  A
C2192      H2197   1.083       .  S
C2193      C2194   1.424       .  A
C2194      F2198   1.354       .  S
C2195      C2200   1.395       .  A
C2195      C2204   1.393       .  A
C2200      C2201   1.387       .  A
C2200      F2205   1.358       .  S
C2201      C2202   1.417       .  A
C2201      H2206   1.078       .  S
C2202      C2203   1.427       .  A
C2203      C2204   1.397       .  A
C2203      F2207   1.345       .  S
C2204      H2208   1.080       .  S
