geometry optimzed in LAMMPS
_audit_creation_date              2020-11-30 
_audit_creation_method            'lammps2cif' 
_symmetry_space_group_name_H-M    'P1' 
_symmetry_Int_Tables_number       1 
_symmetry_cell_setting            triclinic 
loop_ 
_symmetry_equiv_pos_as_xyz 
  x,y,z 
_cell_length_a                    38.70896594 
_cell_length_b                    39.153217749580605 
_cell_length_c                    39.293601231821015 
_cell_angle_alpha                 89.94469575189821 
_cell_angle_beta                  90.03003662780725 
_cell_angle_gamma                 89.92048991922778 
loop_ 
_atom_site_label 
_atom_site_type_symbol 
_atom_site_fract_x 
_atom_site_fract_y 
_atom_site_fract_z 
_atom_site_charge 
O1          O  0.93552495  0.94598970  0.00044349    -0.74700
C2          C  0.94468942  0.02927103  0.92712861     0.86400
O3          O  0.05497379  0.94547399  0.96385782    -0.75800
O4          O  0.04217948  0.06866937  0.96989497    -0.77300
O5          O  0.96932446  0.04413080  0.06716001    -0.77100
O6          O  0.94364242  0.96356605  0.05385162    -0.75700
Zn7        Zn  0.97105376  0.97065307  0.97180614     1.55700
O8          O  0.97543839  0.07909204  0.02258343    -0.77100
Cd9        Cd  0.98467095  0.99689921  0.04879822     1.59700
Cd10       Cd  0.04936480  0.98612993  0.99691055     1.59600
O11         O  0.02438018  0.97920841  0.07944054    -0.77100
O12         O  0.99962223  0.00015765  0.00006302    -1.87600
Cd13       Cd  0.99480542  0.04857771  0.98417108     1.59900
O14         O  0.06876756  0.97134596  0.04400433    -0.77000
O15         O  0.96177467  0.05203664  0.94290546    -0.75700
C16         C  0.03272369  0.92855075  0.94705188     0.86800
C17         C  0.92765860  0.94567654  0.03191072     0.86500
O18         O  0.94576465  0.99786004  0.93554401    -0.74700
C19         C  0.96724419  0.07354942  0.05346419     0.87300
O20         O  0.00055926  0.93536133  0.94803355    -0.74700
C21         C  0.05549071  0.97038827  0.07364400     0.87400
C22         C  0.07267262  0.05642645  0.96971385     0.87800
O23         O  0.07943011  0.02600780  0.97911341    -0.77200
C24         C  0.05532669  0.34164671  0.10677516     0.84000
N25         N  0.03125230  0.31649183  0.10637760    -0.74300
C26         C  0.03703526  0.28691870  0.12343340     0.86500
N27         N  0.06687242  0.28248229  0.14094032    -0.74200
C28         C  0.09100875  0.30755300  0.14139745     0.86600
N29         N  0.08527968  0.33722183  0.12431350    -0.75900
C30         C  0.90877467  0.19396877  0.14188459     0.84000
N31         N  0.93373912  0.21823210  0.14139532    -0.74300
C32         C  0.96355907  0.21265170  0.12422138     0.86500
N33         N  0.96845430  0.18277062  0.10751069    -0.74200
C34         C  0.94353385  0.15843818  0.10797269     0.86600
N35         N  0.91361438  0.16399911  0.12515952    -0.75900
C36         C  0.84159457  0.11026059  0.44488377     0.84000
N37         N  0.81725620  0.11105858  0.46968130    -0.74300
C38         C  0.78711480  0.12789834  0.46448574     0.86500
N39         N  0.78122085  0.14392413  0.43446688    -0.74200
C40         C  0.80547244  0.14316524  0.40958721     0.86600
N41         N  0.83575632  0.12632075  0.41473923    -0.75900
C42         C  0.69446592  0.14532668  0.59262617     0.84000
N43         N  0.71901561  0.14559196  0.56801121    -0.74300
C44         C  0.71359458  0.12882626  0.53834963     0.86500
N45         N  0.68364243  0.11173964  0.53325257    -0.74200
C46         C  0.65901322  0.11141043  0.55776972     0.86600
N47         N  0.66436713  0.12820222  0.58757179    -0.75900
O48         O  0.68355537  0.24899769  0.30277395    -0.74700
C49         C  0.69604885  0.17654687  0.21995210     0.86400
O50         O  0.80321307  0.21283040  0.30758286    -0.75800
O51         O  0.79374879  0.22006000  0.18396916    -0.77300
O52         O  0.72102572  0.31797404  0.20770082    -0.77100
O53         O  0.69264374  0.30290950  0.28662096    -0.75700
Zn54       Zn  0.72035209  0.22063656  0.27963504     1.55700
O55         O  0.72757602  0.27375898  0.17237703    -0.77100
Cd56       Cd  0.73480555  0.29838886  0.25485970     1.59700
Cd57       Cd  0.79887516  0.24576888  0.26669981     1.59600
O58         O  0.77392441  0.32852675  0.27442314    -0.77100
O59         O  0.74961779  0.24945606  0.25135438    -1.87600
Cd60       Cd  0.74593768  0.23455396  0.20272052     1.59900
O61         O  0.81826422  0.29275749  0.28195519    -0.77000
O62         O  0.71301715  0.19325909  0.19778922    -0.75700
C63         C  0.78047011  0.19615910  0.32398606     0.86800
C64         C  0.67582417  0.28062060  0.30332774     0.86500
O65         O  0.69667908  0.18417763  0.25145172    -0.74700
C66         C  0.71947315  0.30473530  0.17815253     0.87300
O67         O  0.74854923  0.19704500  0.31615999    -0.74700
C68         C  0.80491858  0.32246630  0.28345649     0.87400
C69         C  0.82377017  0.21885675  0.19717642     0.87800
O70         O  0.82973302  0.22752830  0.22783522    -0.77200
C71         C  0.80659633  0.64508392  0.59258199     0.84000
N72         N  0.78195148  0.64634144  0.56806569    -0.74300
C73         C  0.78707372  0.63032599  0.53794220     0.86500
N74         N  0.81682226  0.61297102  0.53229583    -0.74200
C75         C  0.84154634  0.61165929  0.55672742     0.86600
N76         N  0.83648594  0.62772055  0.58697265    -0.75900
C77         C  0.65855233  0.61162570  0.44571855     0.84000
N78         N  0.66373917  0.62752908  0.41538973    -0.74300
C79         C  0.69356542  0.64494770  0.40986390     0.86500
N80         N  0.71804275  0.64637484  0.43453744    -0.74200
C81         C  0.71278721  0.63049567  0.46474139     0.86600
N82         N  0.68309593  0.61310342  0.47029857    -0.75900
O83         O  0.05415922  0.50002751  0.56602318    -0.74700
C84         C  0.96956136  0.42843714  0.55373048     0.86400
O85         O  0.05831559  0.46547786  0.44785053    -0.75800
O86         O  0.93320899  0.47149763  0.45684028    -0.77300
O87         O  0.95638853  0.56882168  0.53099006    -0.77100
O88         O  0.03659214  0.55382977  0.55875037    -0.75700
Zn89       Zn  0.03016117  0.47228961  0.52958332     1.55700
O90         O  0.92047949  0.52504169  0.52238999    -0.77100
Cd91       Cd  0.00435031  0.54990111  0.51704244     1.59700
Cd92       Cd  0.01686823  0.49856419  0.45271747     1.59600
O93         O  0.02392475  0.58089740  0.47906633    -0.77100
O94         O  0.00111348  0.50135597  0.50123214    -1.87600
Cd95       Cd  0.95173447  0.48615551  0.50419111     1.59900
O96         O  0.03222871  0.54599386  0.43484220    -0.77000
O97         O  0.94696817  0.44484420  0.53675402    -0.75700
C98         C  0.07455892  0.44786281  0.46990171     0.86800
C99         C  0.05415208  0.53139119  0.57458406     0.86500
O100        O  0.00148487  0.43620259  0.55310070    -0.74700
C101        C  0.92633410  0.55567059  0.53158939     0.87300
O102        O  0.06660058  0.44824583  0.50134955    -0.74700
C103        C  0.03337634  0.57543951  0.44852400     0.87400
C104        C  0.94674012  0.47102595  0.42730252     0.87800
O105        O  0.97764516  0.48061633  0.42171622    -0.77200
C106        C  0.41101042  0.80679414  0.14228242     0.84000
N107        N  0.43528747  0.78184713  0.14097339    -0.74300
C108        C  0.46496572  0.78692010  0.12346931     0.86500
N109        N  0.47047666  0.81697297  0.10726841    -0.74200
C110        C  0.44628110  0.84201930  0.10850919     0.86600
N111        N  0.41643515  0.83698752  0.12603274    -0.75900
C112        C  0.59381043  0.69480775  0.14015573     0.84000
N113        N  0.58899244  0.66458069  0.12382614    -0.74300
C114        C  0.55895535  0.65880066  0.10683004     0.86500
N115        N  0.53396000  0.68309998  0.10624096    -0.74200
C116        C  0.53887168  0.71316236  0.12254980     0.86600
N117        N  0.56873931  0.71898820  0.13949916    -0.75900
C118        C  0.11012276  0.05675768  0.34097596     0.84000
N119        N  0.12633513  0.08703775  0.33545991    -0.74300
C120        C  0.14255978  0.09277509  0.30532233     0.86500
N121        N  0.14255242  0.06833840  0.28088288    -0.74200
C122        C  0.12635824  0.03818416  0.28641036     0.86600
N123        N  0.11014986  0.03240635  0.31643260    -0.75900
C124        C  0.11064608  0.94594527  0.15846201     0.84000
N125        N  0.12724416  0.91583553  0.16412197    -0.74300
C126        C  0.14365669  0.91041390  0.19425605     0.86500
N127        N  0.14342194  0.93499369  0.21855470    -0.74200
C128        C  0.12684814  0.96497304  0.21289253     0.86600
N129        N  0.11046422  0.97043262  0.18287555    -0.75900
O130        O  0.30566524  0.68558993  0.24900815    -0.74700
C131        C  0.22049767  0.69882012  0.17740249     0.86400
O132        O  0.30997811  0.80438786  0.21560981    -0.75800
O133        O  0.18443554  0.79571232  0.22102755    -0.77300
O134        O  0.20868677  0.72008328  0.31737928    -0.77100
O135        O  0.28954068  0.69379241  0.30287869    -0.75700
Zn136      Zn  0.28137416  0.72227933  0.22138118     1.55700
O137        O  0.17238033  0.72951541  0.27412187    -0.77100
Cd138      Cd  0.25638040  0.73502551  0.29882685     1.59700
Cd139      Cd  0.26813755  0.79972656  0.24789361     1.59600
O140        O  0.27467559  0.77351884  0.33005374    -0.77100
O141        O  0.25265343  0.75092898  0.25046212    -1.87600
Cd142      Cd  0.20323259  0.74814408  0.23536160     1.59900
O143        O  0.28246140  0.81810863  0.29540568    -0.77000
O144        O  0.19815043  0.71590024  0.19396747    -0.75700
C145        C  0.32604707  0.78230412  0.19790612     0.86800
C146        C  0.30656053  0.67753770  0.28042274     0.86500
O147        O  0.25247153  0.69904666  0.18510881    -0.74700
C148        C  0.17853134  0.71973679  0.30444275     0.87300
O149        O  0.31780946  0.75081370  0.19781822    -0.74700
C150        C  0.28344354  0.80440480  0.32480426     0.87400
C151        C  0.19808207  0.82527747  0.22008558     0.87800
O152        O  0.22913538  0.83078048  0.22923895    -0.77200
O153        O  0.30406928  0.31718681  0.25181230    -0.74700
C154        C  0.21915038  0.30466707  0.32414277     0.86400
O155        O  0.30780930  0.19891416  0.28649653    -0.75800
O156        O  0.18289150  0.20782745  0.27994009    -0.77300
O157        O  0.20620354  0.28306707  0.18383479    -0.77100
O158        O  0.28731383  0.30920694  0.19805616    -0.75700
Zn159      Zn  0.27962422  0.28107577  0.27971216     1.55700
O160        O  0.17041438  0.27456233  0.22764313    -0.77100
Cd161      Cd  0.25412246  0.26810159  0.20220167     1.59700
Cd162      Cd  0.26669545  0.20377184  0.25335404     1.59600
O163        O  0.27280437  0.22955822  0.17108084    -0.77100
O164        O  0.25084816  0.25248667  0.25070567    -1.87600
Cd165      Cd  0.20154719  0.25550582  0.26611992     1.59900
O166        O  0.28213354  0.18556066  0.20613700    -0.77000
O167        O  0.19673775  0.28735945  0.30793086    -0.75700
C168        C  0.32378356  0.22101534  0.30419910     0.86800
C169        C  0.30473571  0.32520131  0.22039322     0.86500
O170        O  0.25097892  0.30470100  0.31592973    -0.74700
C171        C  0.17621815  0.28392916  0.19713167     0.87300
O172        O  0.31580175  0.25257921  0.30379609    -0.74700
C173        C  0.28262990  0.19899654  0.17661175     0.87400
C174        C  0.19650465  0.17819821  0.28038679     0.87800
O175        O  0.22752375  0.17267387  0.27113262    -0.77200
C176        C  0.55648586  0.84187434  0.60663375     0.84000
N177        N  0.53199382  0.81717329  0.60526688    -0.74300
C178        C  0.53703522  0.78705099  0.62153290     0.86500
N179        N  0.56656101  0.78157198  0.63925866    -0.74200
C180        C  0.59116156  0.80615519  0.64071199     0.86600
N181        N  0.58616821  0.83642526  0.62439500    -0.75900
C182        C  0.40860744  0.69438759  0.63980194     0.84000
N183        N  0.43315467  0.71902965  0.63853839    -0.74300
C184        C  0.46287380  0.71358298  0.62117221     0.86500
N185        N  0.46815293  0.68343565  0.60509554    -0.74200
C186        C  0.44369482  0.65869559  0.60629620     0.86600
N187        N  0.41382966  0.66410207  0.62368842    -0.75900
O188        O  0.50015823  0.93592425  0.55334445    -0.74700
C189        C  0.44684097  0.03199679  0.57460850     0.86400
O190        O  0.44325715  0.96508339  0.44825200    -0.75800
O191        O  0.47772528  0.08046374  0.47822275    -0.77300
O192        O  0.58058802  0.02494430  0.52339447    -0.77100
O193        O  0.55456692  0.94442620  0.53664449    -0.75700
Zn194      Zn  0.47136047  0.97240142  0.53012771     1.55700
O195        O  0.54434253  0.06865752  0.53153467    -0.77100
Cd196      Cd  0.54988018  0.98603786  0.50442205     1.59700
Cd197      Cd  0.48497114  0.99778251  0.45272249     1.59600
O198        O  0.56903599  0.97165271  0.45705513    -0.77100
O199        O  0.50037872  0.00110805  0.50137758    -1.87600
Cd200      Cd  0.49666288  0.04978462  0.51683687     1.59900
O201        O  0.52428719  0.97927259  0.42193092    -0.77000
O202        O  0.46386013  0.05433541  0.55814958    -0.75700
C203        C  0.42671472  0.94807785  0.47051707     0.86800
C204        C  0.53208668  0.92797587  0.55365068     0.86500
O205        O  0.44746442  0.00044241  0.56671003    -0.74700
C206        C  0.57443074  0.05553263  0.53261703     0.87300
O207        O  0.43460412  0.94875698  0.50198962    -0.74700
C208        C  0.55545388  0.97040549  0.42753195     0.87400
C209        C  0.46862608  0.07476269  0.44761127     0.87800
O210        O  0.46989675  0.04517485  0.43421769    -0.77200
C211        C  0.34288816  0.39003226  0.55661030     0.84000
N212        N  0.31798051  0.38930111  0.53234039    -0.74300
C213        C  0.28795958  0.37253543  0.53815279     0.86500
N214        N  0.28277078  0.35650930  0.56830917    -0.74200
C215        C  0.30761779  0.35720960  0.59267523     0.86600
N216        N  0.33775471  0.37399100  0.58686642    -0.75900
C217        C  0.19458597  0.35754592  0.41007671     0.84000
N218        N  0.21905300  0.35656893  0.43480266    -0.74300
C219        C  0.21372345  0.37292575  0.46473334     0.86500
N220        N  0.18393522  0.39034775  0.46997567    -0.74200
C221        C  0.15936979  0.39140967  0.44537359     0.86600
N222        N  0.16464949  0.37500411  0.41531713    -0.75900
C223        C  0.59113274  0.30612415  0.35886673     0.84000
N224        N  0.56610224  0.28198936  0.36016235    -0.74300
C225        C  0.53684238  0.28778504  0.37813326     0.86500
N226        N  0.53252683  0.31774428  0.39481708    -0.74200
C227        C  0.55751195  0.34196108  0.39356721     0.86600
N228        N  0.58691758  0.33620457  0.37558421    -0.75900
C229        C  0.44305659  0.16000478  0.39421336     0.84000
N230        N  0.46762702  0.18464564  0.39522785    -0.74300
C231        C  0.46236373  0.21479195  0.37908606     0.86500
N232        N  0.43258897  0.22034233  0.36184715    -0.74200
C233        C  0.40794643  0.19581326  0.36077661     0.86600
N234        N  0.41311370  0.16552073  0.37694848    -0.75900
C235        C  0.64355531  0.59116262  0.80668168     0.84000
N236        N  0.64372414  0.56658364  0.78241076    -0.74300
C237        C  0.62753923  0.53645546  0.78799523     0.86500
N238        N  0.61109079  0.53080228  0.81790413    -0.74200
C239        C  0.61083607  0.55525326  0.84233874     0.86600
N240        N  0.62706382  0.58557151  0.83676158    -0.75900
C241        C  0.61029733  0.44594014  0.65930398     0.84000
N242        N  0.61038502  0.47005421  0.68406996    -0.74300
C243        C  0.62720230  0.46417692  0.71376335     0.86500
N244        N  0.64392927  0.43419896  0.71875873    -0.74200
C245        C  0.64389290  0.40999703  0.69412635     0.86600
N246        N  0.62705860  0.41579055  0.66428455    -0.75900
O247        O  0.55463453  0.50206558  0.56613714    -0.74700
C248        C  0.57439263  0.55469838  0.47020535     0.86400
O249        O  0.44666610  0.55642356  0.53632251    -0.75800
O250        O  0.47816859  0.52187613  0.42155104    -0.77300
O251        O  0.52492848  0.42135240  0.47843040    -0.77100
O252        O  0.53834575  0.44804077  0.55818493    -0.75700
Zn253      Zn  0.53017534  0.52975651  0.52974260     1.55700
O254        O  0.53279326  0.45652839  0.43429327    -0.77100
Cd255      Cd  0.50563946  0.45204970  0.51675982     1.59700
Cd256      Cd  0.45214122  0.51531397  0.50379396     1.59600
O257        O  0.45795554  0.43277717  0.53100054    -0.77100
O258        O  0.50169542  0.50060611  0.50106300    -1.87600
Cd259      Cd  0.51737496  0.50378057  0.45254742     1.59900
O260        O  0.42144023  0.47608072  0.52186380    -0.77000
O261        O  0.55853220  0.53700546  0.44802716    -0.75700
C262        C  0.46889063  0.57302906  0.55346493     0.86800
C263        C  0.55540920  0.47057891  0.57430036     0.86500
O264        O  0.56627878  0.55419078  0.50160741    -0.74700
C265        C  0.53405222  0.42698857  0.44781809     0.87300
O266        O  0.50091927  0.56556024  0.55314749    -0.74700
C267        C  0.42770986  0.44558946  0.53133985     0.87400
C268        C  0.44709667  0.53102523  0.42704710     0.87800
O269        O  0.43343308  0.53007060  0.45650618    -0.77200
C270        C  0.30716380  0.14455425  0.09184235     0.84000
N271        N  0.33676829  0.12660985  0.08643979    -0.74300
C272        C  0.34136185  0.10969264  0.05655756     0.86500
N273        N  0.31644811  0.11075320  0.03228134    -0.74200
C274        C  0.28697756  0.12865626  0.03771578     0.86600
N275        N  0.28235509  0.14552158  0.06746428    -0.75900
C276        C  0.15713124  0.11329511  0.94594040     0.84000
N277        N  0.18192637  0.11351039  0.97035231    -0.74300
C278        C  0.21203580  0.13029353  0.96498855     0.86500
N279        N  0.21744275  0.14680727  0.93514251    -0.74200
C280        C  0.19274432  0.14664323  0.91063858     0.86600
N281        N  0.16251733  0.12983012  0.91597323    -0.75900
C282        C  0.10905738  0.44482667  0.84275127     0.84000
N283        N  0.10866167  0.46938004  0.81838176    -0.74300
C284        C  0.12466607  0.46397983  0.78820467     0.86500
N285        N  0.14109727  0.43398427  0.78231960    -0.74200
C286        C  0.14154746  0.40931559  0.80657410     0.86600
N287        N  0.12551786  0.41468702  0.83690056    -0.75900
C288        C  0.10773666  0.55578771  0.66023733     0.84000
N289        N  0.12439776  0.58588471  0.66537063    -0.74300
C290        C  0.14086600  0.59164722  0.69537386     0.86500
N291        N  0.14068211  0.56739569  0.72004569    -0.74200
C292        C  0.12403550  0.53742156  0.71487190     0.86600
N293        N  0.10758623  0.53162763  0.68498958    -0.75900
O294        O  0.30470988  0.18466775  0.75390986    -0.74700
C295        C  0.32429302  0.28131948  0.80566535     0.86400
O296        O  0.19627646  0.21556137  0.80755352    -0.75800
O297        O  0.22766335  0.32986456  0.77276405    -0.77300
O298        O  0.27463564  0.27310070  0.67269936    -0.77100
O299        O  0.28979133  0.19346330  0.69977119    -0.75700
Zn300      Zn  0.27996133  0.22141158  0.78119312     1.55700
O301        O  0.28219538  0.31747442  0.70761666    -0.77100
Cd302      Cd  0.25617192  0.23436058  0.70343695     1.59700
Cd303      Cd  0.20186050  0.24723934  0.76573898     1.59600
O304        O  0.20895992  0.21896746  0.68395029    -0.77100
O305        O  0.25161495  0.25013473  0.75173232    -1.87600
Cd306      Cd  0.26707777  0.29892654  0.75483693     1.59900
O307        O  0.17184144  0.22797450  0.72655359    -0.77000
O308        O  0.30837510  0.30352372  0.78791324    -0.75700
C309        C  0.21841571  0.19860996  0.82457769     0.86800
C310        C  0.30634595  0.17696789  0.72243695     0.86500
O311        O  0.31612800  0.24981251  0.80537848    -0.74700
C312        C  0.28342689  0.30392038  0.67818354     0.87300
O313        O  0.25045488  0.19856140  0.81717569    -0.74700
C314        C  0.17859524  0.21823830  0.69635767     0.87400
C315        C  0.19631223  0.32437327  0.78086903     0.87800
O316        O  0.18261284  0.29485931  0.77925771    -0.77200
O317        O  0.55460725  0.99993205  0.06596035    -0.74700
C318        C  0.47058252  0.92714780  0.05424123     0.86400
O319        O  0.55886104  0.96370728  0.94828465    -0.75800
O320        O  0.43384606  0.96914117  0.95652526    -0.77300
O321        O  0.45602983  0.06699976  0.03039476    -0.77100
O322        O  0.53674576  0.05351412  0.05791912    -0.75700
Zn323      Zn  0.53073050  0.97150878  0.02995255     1.55700
O324        O  0.42062023  0.02272086  0.02222797    -0.77100
Cd325      Cd  0.50427048  0.04868942  0.01631696     1.59700
Cd326      Cd  0.51736876  0.99675920  0.95253445     1.59600
O327        O  0.52351741  0.07949836  0.97786417    -0.77100
O328        O  0.50149858  0.99990713  0.00103186    -1.87600
Cd329      Cd  0.45228048  0.98410174  0.00392358     1.59900
O330        O  0.53287728  0.04408586  0.93425406    -0.77000
O331        O  0.44799483  0.94290494  0.03666565    -0.75700
C332        C  0.57524522  0.94659463  0.97062269     0.86800
C333        C  0.55449292  0.03141843  0.07405652     0.86500
O334        O  0.50238030  0.93543877  0.05398255    -0.74700
C335        C  0.42613789  0.05347125  0.03128204     0.87300
O336        O  0.56733471  0.94741770  0.00206873    -0.74700
C337        C  0.53352365  0.07374718  0.94752781     0.87400
C338        C  0.44739383  0.96873305  0.92698083     0.87800
O339        O  0.47826376  0.97849498  0.92145053    -0.77200
C340        C  0.85967846  0.40738931  0.30813305     0.84000
N341        N  0.85953555  0.43138091  0.28319392    -0.74300
C342        C  0.87587564  0.46158802  0.28797886     0.86500
N343        N  0.89235728  0.46787096  0.31774549    -0.74200
C344        C  0.89254854  0.44399998  0.34278016     0.86600
N345        N  0.87619087  0.41365849  0.33803180    -0.75900
C346        C  0.85861764  0.58936963  0.19570761     0.84000
N347        N  0.85860780  0.56458234  0.21985435    -0.74300
C348        C  0.87540643  0.53471713  0.21424249     0.86500
N349        N  0.89226725  0.52959815  0.18445482    -0.74200
C350        C  0.89232497  0.55429648  0.16021705     0.86600
N351        N  0.87549322  0.58426806  0.16580528    -0.75900
C352        C  0.60855973  0.05574682  0.15952854     0.84000
N353        N  0.60821271  0.03133558  0.18405213    -0.74300
C354        C  0.62466127  0.03671587  0.21402646     0.86500
N355        N  0.64148834  0.06653131  0.21952659    -0.74200
C356        C  0.64189568  0.09103812  0.19511363     0.86600
N357        N  0.62541013  0.08569687  0.16501783    -0.75900
C358        C  0.60950969  0.94457609  0.34236561     0.84000
N359        N  0.60886035  0.96894300  0.31779376    -0.74300
C360        C  0.62483148  0.96344435  0.28759927     0.86500
N361        N  0.64150595  0.93355067  0.28190372    -0.74200
C362        C  0.64225008  0.90905189  0.30630858     0.86600
N363        N  0.62623631  0.91450886  0.33666671    -0.75900
C364        C  0.05901827  0.66036252  0.39484716     0.84000
N365        N  0.08884777  0.66536239  0.37733037    -0.74300
C366        C  0.09399678  0.69527242  0.36052590     0.86500
N367        N  0.06942289  0.71997941  0.36122700    -0.74200
C368        C  0.03972172  0.71493406  0.37872781     0.86600
N369        N  0.03450904  0.68513957  0.39549777    -0.75900
C370        C  0.91036622  0.80643415  0.35958424     0.84000
N371        N  0.91499960  0.83673365  0.37579049    -0.74300
C372        C  0.94480959  0.84263103  0.39308722     0.86500
N373        N  0.96980127  0.81833196  0.39414218    -0.74200
C374        C  0.96510174  0.78815176  0.37796019     0.86600
N375        N  0.93542341  0.78222499  0.36068056    -0.75900
C376        C  0.84329862  0.88920916  0.05669357     0.84000
N377        N  0.81866262  0.88813002  0.03217710    -0.74300
C378        C  0.78893591  0.87074555  0.03759731     0.86500
N379        N  0.78374827  0.85446535  0.06760587    -0.74200
C380        C  0.80831627  0.85549665  0.09221576     0.86600
N381        N  0.83817488  0.87290371  0.08681915    -0.75900
C382        C  0.69496351  0.85730878  0.90962237     0.84000
N383        N  0.66510814  0.87465540  0.91545425    -0.74300
C384        C  0.66011175  0.89043886  0.94585649     0.86500
N385        N  0.68487520  0.88887782  0.97023206    -0.74200
C386        C  0.71459689  0.87154159  0.96438829     0.86600
N387        N  0.71965254  0.85578916  0.93409989    -0.75900
O388        O  0.69801326  0.81613257  0.24938835    -0.74700
C389        C  0.78370742  0.80251560  0.17781836     0.86400
O390        O  0.69360549  0.69783379  0.21438492    -0.75800
O391        O  0.81850881  0.70439711  0.22107103    -0.77300
O392        O  0.79557221  0.78064621  0.31711204    -0.77100
O393        O  0.71476307  0.80776568  0.30305998    -0.75700
Zn394      Zn  0.72249989  0.77965925  0.22151701     1.55700
O395        O  0.83164700  0.77054235  0.27386817    -0.77100
Cd396      Cd  0.74763202  0.76629320  0.29866783     1.59700
Cd397      Cd  0.73471597  0.70190795  0.24755730     1.59600
O398        O  0.72875147  0.72793875  0.32966628    -0.77100
O399        O  0.75097538  0.75042362  0.25032424    -1.87600
Cd400      Cd  0.80042997  0.75228560  0.23519584     1.59900
O401        O  0.71917903  0.68392021  0.29478383    -0.77000
O402        O  0.80581034  0.78455192  0.19382752    -0.75700
C403        C  0.67803283  0.72014310  0.19649752     0.86800
C404        C  0.69740514  0.82406400  0.28083766     0.86500
O405        O  0.75185332  0.80306576  0.18589524    -0.74700
C406        C  0.82569897  0.78056092  0.30412854     0.87300
O407        O  0.68635391  0.75161244  0.19688825    -0.74700
C408        C  0.71879272  0.69745562  0.32423683     0.87400
C409        C  0.80449219  0.67499305  0.22057359     0.87800
O410        O  0.77338064  0.67001400  0.22978807    -0.77200
C411        C  0.39359278  0.55664208  0.34169949     0.84000
N412        N  0.39423476  0.53217530  0.31730289    -0.74300
C413        C  0.37840870  0.53762808  0.28702115     0.86500
N414        N  0.36188460  0.56757204  0.28106613    -0.74200
C415        C  0.36119404  0.59215225  0.30535045     0.86600
N416        N  0.37705496  0.58673765  0.33578043    -0.75900
C417        C  0.39385103  0.44449527  0.15975930     0.84000
N418        N  0.39464250  0.46896253  0.18415850    -0.74300
C419        C  0.37852563  0.46375035  0.21431638     0.86500
N420        N  0.36155283  0.43407585  0.22011801    -0.74200
C421        C  0.36072612  0.40952243  0.19581901     0.86600
N422        N  0.37686372  0.41468536  0.16553134    -0.75900
O423        O  0.55514475  0.49904287  0.93532575    -0.74700
C424        C  0.57443142  0.44656318  0.03157712     0.86400
O425        O  0.44752439  0.44311922  0.96489694    -0.75800
O426        O  0.47794827  0.47914186  0.07971514    -0.77300
O427        O  0.52410917  0.57943036  0.02267735    -0.77100
O428        O  0.53783553  0.55284011  0.94297235    -0.75700
Zn429      Zn  0.53057842  0.47104284  0.97149012     1.55700
O430        O  0.53244387  0.54431417  0.06677868    -0.77100
Cd431      Cd  0.50495106  0.54851130  0.98433650     1.59700
Cd432      Cd  0.45225877  0.48438723  0.99732124     1.59600
O433        O  0.45686805  0.56706225  0.97007488    -0.77100
O434        O  0.50153884  0.49989843  0.00002700    -1.87600
Cd435      Cd  0.51695548  0.49711247  0.04864050     1.59900
O436        O  0.42107676  0.52319239  0.97900660    -0.77000
O437        O  0.55811785  0.46409164  0.05354936    -0.75700
C438        C  0.46997053  0.42693920  0.94759506     0.86800
C439        C  0.55550932  0.53053206  0.92709950     0.86500
O440        O  0.56670462  0.44697132  0.00006369    -0.74700
C441        C  0.53356581  0.57383245  0.05322518     0.87300
O442        O  0.50186446  0.43491962  0.94782281    -0.74700
C443        C  0.42684850  0.55378611  0.96960334     0.87400
C444        C  0.44709757  0.46942467  0.07419409     0.87800
O445        O  0.43357141  0.46970034  0.04464502    -0.77200
O446        O  0.93529649  0.05461817  0.50020239    -0.74700
C447        C  0.94693575  0.97174349  0.57321084     0.90400
O448        O  0.05500243  0.05870190  0.53452766    -0.75800
O449        O  0.04444223  0.93438126  0.53039275    -0.77300
O450        O  0.97009591  0.95766877  0.43286936    -0.77100
O451        O  0.94375450  0.03799965  0.44653644    -0.75700
Zn452      Zn  0.97187192  0.03096913  0.52849006     1.55700
O453        O  0.97788145  0.92256752  0.47709758    -0.77100
Cd454      Cd  0.98523054  0.00502008  0.45119908     1.59700
Cd455      Cd  0.05012381  0.01682433  0.50285447     1.59600
O456        O  0.02455214  0.02301094  0.42035832    -0.77100
O457        O  0.00064626  0.00193847  0.49986121    -1.87600
Cd458      Cd  0.99676114  0.95337311  0.51555294     1.59900
O459        O  0.06930051  0.03061710  0.45545405    -0.77000
O460        O  0.96382847  0.94923145  0.55682959    -0.75700
C461        C  0.03260270  0.07533391  0.55146782     0.86800
C462        C  0.92735740  0.05520128  0.46874928     0.86500
O463        O  0.94781434  0.00328993  0.56524888    -0.74700
C464        C  0.96886648  0.92813729  0.44642612     0.87300
O465        O  0.00068116  0.06748236  0.55136188    -0.74700
C466        C  0.05573469  0.03167057  0.42593262     0.87400
C467        C  0.07454141  0.94741079  0.53151892     0.87800
O468        O  0.08074333  0.97795511  0.52218886    -0.77200
C469        C  0.30709693  0.85811678  0.41027240     0.84000
N470        N  0.33682577  0.87572854  0.41579271    -0.74300
C471        C  0.34173596  0.89209663  0.44591037     0.86500
N472        N  0.31701372  0.89083446  0.47031603    -0.74200
C473        C  0.28741859  0.87325337  0.46478738     0.86600
N474        N  0.28245251  0.85692294  0.43478719    -0.75900
C475        C  0.15895162  0.89124660  0.55742742     0.84000
N476        N  0.18354057  0.89026400  0.53287992    -0.74300
C477        C  0.21332901  0.87286075  0.53818759     0.86500
N478        N  0.21862742  0.85644346  0.56810803    -0.74200
C479        C  0.19412898  0.85735658  0.59276173     0.86600
N480        N  0.16418522  0.87478420  0.58748099    -0.75900
C481        C  0.40929064  0.30580424  0.86141134     0.84000
N482        N  0.43389442  0.28113091  0.86223803    -0.74300
C483        C  0.46388636  0.28650247  0.87916788     0.86500
N484        N  0.46938820  0.31659577  0.89524446    -0.74200
C485        C  0.44489008  0.34137396  0.89447826     0.86600
N486        N  0.41473677  0.33604514  0.87753011    -0.75900
C487        C  0.55893654  0.15897878  0.89404010     0.84000
N488        N  0.53395373  0.18327800  0.89500663    -0.74300
C489        C  0.53860935  0.21343056  0.87873086     0.86500
N490        N  0.56824755  0.21936073  0.86141747    -0.74200
C491        C  0.59333883  0.19519207  0.86036585     0.86600
N492        N  0.58874517  0.16486970  0.87668063    -0.75900
C493        C  0.09432412  0.19421151  0.63972171     0.84000
N494        N  0.08853761  0.16469568  0.62244754    -0.74300
C495        C  0.05834018  0.16037916  0.60529087     0.86500
N496        N  0.03411189  0.18544313  0.60549661    -0.74200
C497        C  0.03996438  0.21482776  0.62273703     0.86600
N498        N  0.07001514  0.21917663  0.63984982    -0.75900
C499        C  0.94641268  0.34344824  0.60869407     0.84000
N500        N  0.97115899  0.31889925  0.60786946    -0.74300
C501        C  0.96648883  0.28916780  0.62491864     0.86500
N502        N  0.93706724  0.28392238  0.64281599    -0.74200
C503        C  0.91225411  0.30838334  0.64372455     0.86600
N504        N  0.91685458  0.33823416  0.62662639    -0.75900
C505        C  0.65959164  0.39172645  0.05734306     0.84000
N506        N  0.68426858  0.39094120  0.03291773    -0.74300
C507        C  0.71438254  0.37426021  0.03856847     0.86500
N508        N  0.71992240  0.35833317  0.06871909    -0.74200
C509        C  0.69529534  0.35909444  0.09326839     0.86600
N510        N  0.66502127  0.37579675  0.08762347    -0.75900
C511        C  0.84145790  0.39339096  0.94452906     0.84000
N512        N  0.83598352  0.37701922  0.91450331    -0.74300
C513        C  0.80605041  0.35958098  0.90947697     0.86500
N514        N  0.78182308  0.35853245  0.93438450    -0.74200
C515        C  0.78739465  0.37484160  0.96427971     0.86600
N516        N  0.81715143  0.39226167  0.96932123    -0.75900
O517        O  0.75018806  0.30533492  0.81570843    -0.74700
C518        C  0.69845845  0.32494806  0.71935395     0.86400
O519        O  0.69409387  0.19897868  0.78693171    -0.75800
O520        O  0.73079215  0.22933601  0.67178033    -0.77300
O521        O  0.83260941  0.27374074  0.72979464    -0.77100
O522        O  0.80453905  0.28746837  0.80912213    -0.75700
Zn523      Zn  0.72201454  0.28106698  0.77961671     1.55700
O524        O  0.79762500  0.28209464  0.68530224    -0.77100
Cd525      Cd  0.80066084  0.25497179  0.76778859     1.59700
Cd526      Cd  0.73558956  0.20364296  0.75419324     1.59600
O527        O  0.81901457  0.20717993  0.78226266    -0.77100
O528        O  0.75158318  0.25223236  0.75155385    -1.87600
Cd529      Cd  0.74942294  0.26764905  0.70294587     1.59900
O530        O  0.77454964  0.17226373  0.77223112    -0.77000
O531        O  0.71675134  0.30900252  0.69768223    -0.75700
C532        C  0.67770507  0.22116139  0.80421253     0.86800
C533        C  0.78188450  0.30531129  0.82445540     0.86500
O534        O  0.69798414  0.31689099  0.75077348    -0.74700
C535        C  0.82735069  0.28299582  0.69913772     0.87300
O536        O  0.68550749  0.25276271  0.80361344    -0.74700
C537        C  0.80538625  0.17757146  0.78217197     0.87400
C538        C  0.72042551  0.19900087  0.67732669     0.87800
O539        O  0.72040875  0.18563351  0.70688022    -0.77200
C540        C  0.09297636  0.80783201  0.85992069     0.84000
N541        N  0.08787477  0.83807204  0.87613198    -0.74300
C542        C  0.05787413  0.84365529  0.89321988     0.86500
N543        N  0.03318490  0.81913759  0.89405778    -0.74200
C544        C  0.03834398  0.78903631  0.87788074     0.86600
N545        N  0.06820127  0.78339370  0.86081160    -0.75900
C546        C  0.94472790  0.66123678  0.89459726     0.84000
N547        N  0.96928573  0.68590445  0.89515992    -0.74300
C548        C  0.96396064  0.71580062  0.87856800     0.86500
N549        N  0.93409462  0.72107004  0.86134340    -0.74200
C550        C  0.90946424  0.69648025  0.86072897     0.86600
N551        N  0.91473709  0.66646390  0.87734867    -0.75900
C552        C  0.89008412  0.05400816  0.84190574     0.84000
N553        N  0.87429071  0.08462988  0.83675117    -0.74300
C554        C  0.85813785  0.09103649  0.80667129     0.86500
N555        N  0.85784249  0.06691414  0.78191183    -0.74200
C556        C  0.87362476  0.03642296  0.78707615     0.86600
N557        N  0.88975350  0.03000016  0.81703762    -0.75900
C558        C  0.89172584  0.94645186  0.65794724     0.84000
N559        N  0.89123103  0.97048488  0.68279616    -0.74300
C560        C  0.87416360  0.96448633  0.71230721     0.86500
N561        N  0.85758012  0.93440708  0.71704578    -0.74200
C562        C  0.85798178  0.91024268  0.69234115     0.86600
N563        N  0.87508802  0.91620953  0.66267742    -0.75900
O564        O  0.75014407  0.69850012  0.68566694    -0.74700
C565        C  0.69670431  0.67715362  0.78102085     0.86400
O566        O  0.69193318  0.80375375  0.71469424    -0.75800
O567        O  0.72790355  0.77368365  0.82928362    -0.77300
O568        O  0.83068535  0.73046459  0.77426702    -0.77100
O569        O  0.80451952  0.71519893  0.69452211    -0.75700
Zn570      Zn  0.72104186  0.72185015  0.72154586     1.55700
O571        O  0.79442227  0.72062289  0.81738336    -0.77100
Cd572      Cd  0.79944482  0.74820285  0.73522967     1.59700
Cd573      Cd  0.73409296  0.79953666  0.74688482     1.59600
O574        O  0.81774279  0.79558443  0.71967795    -0.77100
O575        O  0.74992348  0.75081182  0.75014202    -1.87600
Cd576      Cd  0.74657219  0.73504604  0.79857689     1.59900
O577        O  0.77280804  0.83055440  0.72747705    -0.77000
O578        O  0.71388326  0.69359906  0.80319180    -0.75700
C579        C  0.67589265  0.78146473  0.69723933     0.86800
C580        C  0.78213523  0.69806899  0.67809917     0.86500
O581        O  0.69714226  0.68511371  0.74956128    -0.74700
C582        C  0.82462962  0.72067139  0.80459500     0.87300
O583        O  0.68429641  0.74998508  0.69753831    -0.74700
C584        C  0.80384599  0.82505825  0.71819261     0.87400
C585        C  0.71897821  0.80451289  0.82383433     0.87800
O586        O  0.71991870  0.81811867  0.79437828    -0.77200
O587        O  0.94705801  0.49985526  0.06610400    -0.74700
C588        C  0.92647499  0.44899464  0.96929877     0.86400
O589        O  0.05375677  0.44394375  0.03662092    -0.75800
O590        O  0.02416986  0.47995625  0.92198723    -0.77300
O591        O  0.97820921  0.58103386  0.97902379    -0.77100
O592        O  0.96398669  0.55377434  0.05867835    -0.75700
Zn593      Zn  0.97087268  0.47227149  0.02937784     1.55700
O594        O  0.97068533  0.54640441  0.93445543    -0.77100
Cd595      Cd  0.99680697  0.54973628  0.01732286     1.59700
Cd596      Cd  0.04955723  0.48577727  0.00460857     1.59600
O597        O  0.04464250  0.56826750  0.03206563    -0.77100
O598        O  0.00022394  0.50124124  0.00131723    -1.87600
Cd599      Cd  0.98498099  0.49867187  0.95259952     1.59900
O600        O  0.08067928  0.52447159  0.02353774    -0.77000
O601        O  0.94308029  0.46638721  0.94739555    -0.75700
C602        C  0.03095758  0.42734104  0.05305779     0.86800
C603        C  0.94670421  0.53123408  0.07460227     0.86500
O604        O  0.93424272  0.44913045  0.00079785    -0.74700
C605        C  0.96948370  0.57581785  0.94822154     0.87300
O606        O  0.99908161  0.43538195  0.05236993    -0.74700
C607        C  0.07470606  0.55506100  0.03290501     0.87400
C608        C  0.05511793  0.47051599  0.92774727     0.87800
O609        O  0.06856106  0.47129296  0.95733304    -0.77200
C610        C  0.39359384  0.05641056  0.66065222     0.84000
N611        N  0.39369947  0.03158030  0.68474657    -0.74300
C612        C  0.37764179  0.03675627  0.71494156     0.86500
N613        N  0.36142536  0.06680674  0.72112288    -0.74200
C614        C  0.36124683  0.09177420  0.69717411     0.86600
N615        N  0.37733461  0.08662164  0.66681234    -0.75900
C616        C  0.39347786  0.94309960  0.84178202     0.84000
N617        N  0.39370717  0.96764576  0.81740080    -0.74300
C618        C  0.37747877  0.96230754  0.78731291     0.86500
N619        N  0.36096368  0.93237503  0.78153012    -0.74200
C620        C  0.36066233  0.90769754  0.80578152     0.86600
N621        N  0.37692689  0.91301599  0.83602424    -0.75900
C622        C  0.15933833  0.61134958  0.05750392     0.84000
N623        N  0.16487345  0.62809917  0.08731841    -0.74300
C624        C  0.19490194  0.64544857  0.09215031     0.86500
N625        N  0.21920427  0.64595521  0.06728670    -0.74200
C626        C  0.21360562  0.62925381  0.03760566     0.86600
N627        N  0.18373087  0.61195131  0.03275748    -0.75900
C628        C  0.34143426  0.60883337  0.94453891     0.84000
N629        N  0.33604622  0.62464794  0.91419995    -0.74300
C630        C  0.30604173  0.64182298  0.90863124     0.86500
N631        N  0.28160294  0.64318986  0.93332994    -0.74200
C632        C  0.28704384  0.62740215  0.96357128     0.86600
N633        N  0.31692899  0.61022503  0.96915678    -0.75900
O634        O  0.25101641  0.80297473  0.68549777    -0.74700
C635        C  0.30574556  0.82267248  0.78065197     0.86400
O636        O  0.30805195  0.69669856  0.71375797    -0.75800
O637        O  0.27305463  0.72633698  0.82902359    -0.77300
O638        O  0.17111412  0.77219225  0.77399206    -0.77100
O639        O  0.19670577  0.78599039  0.69399837    -0.75700
Zn640      Zn  0.28003639  0.77895431  0.72116390     1.55700
O641        O  0.20758404  0.78085151  0.81721442    -0.77100
Cd642      Cd  0.20172730  0.75339329  0.73512594     1.59700
Cd643      Cd  0.26658430  0.70129228  0.74658537     1.59600
O644        O  0.18252830  0.70609489  0.72081901    -0.77100
O645        O  0.25122512  0.75012013  0.74991156    -1.87600
Cd646      Cd  0.25507530  0.76545832  0.79839557     1.59900
O647        O  0.22721474  0.67069447  0.72826671    -0.77000
O648        O  0.28864076  0.80626959  0.80294020    -0.75700
C649        C  0.32412460  0.71895715  0.69628049     0.86800
C650        C  0.21905460  0.80334939  0.67776591     0.86500
O651        O  0.30472709  0.81503209  0.74915160    -0.74700
C652        C  0.17741592  0.78173020  0.80433103     0.87300
O653        O  0.31610954  0.75052095  0.69682698    -0.74700
C654        C  0.19605013  0.67645430  0.71960546     0.87400
C655        C  0.28200745  0.69557297  0.82334217     0.87800
O656        O  0.28123382  0.68232306  0.79376402    -0.77200
C657        C  0.29280551  0.67502918  0.85166911    -0.09500
C658        C  0.30004721  0.65909655  0.87695472    -0.11000
C659        C  0.26117915  0.62873499  0.98960890    -0.09500
C660        C  0.23948281  0.62934094  0.01154896    -0.11000
C661        C  0.32641146  0.85120736  0.79133145    -0.09500
C662        C  0.34268826  0.87628181  0.79916366    -0.11000
C663        C  0.37770294  0.01042440  0.74029454    -0.09500
C664        C  0.37764598  0.98838292  0.76169567    -0.11000
C665        C  0.10315458  0.57562596  0.04427396    -0.09500
C666        C  0.12807339  0.59246173  0.05185793    -0.11000
C667        C  0.84011497  0.87856984  0.69809540    -0.09500
C668        C  0.82401397  0.85342563  0.70612926    -0.11000
C669        C  0.87357212  0.01111330  0.76073383    -0.09500
C670        C  0.87376945  0.98986662  0.73857791    -0.11000
C671        C  0.95085557  0.62975209  0.91231704    -0.09500
C672        C  0.95839344  0.60446318  0.92820207    -0.11000
C673        C  0.87819300  0.70241173  0.84200607    -0.09500
C674        C  0.85314955  0.70978646  0.82528347    -0.11000
C675        C  0.12425720  0.80141399  0.84144053    -0.09500
C676        C  0.14919434  0.79342433  0.82489940    -0.11000
C677        C  0.01213043  0.76329034  0.87858494    -0.09500
C678        C  0.99009377  0.74164070  0.87881242    -0.11000
C679        C  0.84110848  0.12312774  0.80071320    -0.09500
C680        C  0.82553249  0.14877924  0.79323236    -0.11000
C681        C  0.87271806  0.41213005  0.95048311    -0.09500
C682        C  0.89775134  0.42870518  0.95820211    -0.11000
C683        C  0.79230557  0.32569285  0.85303364    -0.09500
C684        C  0.79977581  0.34182243  0.87811726    -0.11000
C685        C  0.76180383  0.37385964  0.99053108    -0.09500
C686        C  0.74031825  0.37365426  0.01264081    -0.11000
C687        C  0.85621346  0.29439189  0.67924966    -0.09500
C688        C  0.88123509  0.30220267  0.66273621    -0.11000
C689        C  0.99254464  0.26318740  0.62390407    -0.09500
C690        C  0.01424519  0.24114962  0.62321682    -0.11000
C691        C  0.64919858  0.21018018  0.82487695    -0.09500
C692        C  0.62440079  0.20203175  0.84159012    -0.11000
C693        C  0.48997896  0.26056508  0.87963685    -0.09500
C694        C  0.51209635  0.23893875  0.87951786    -0.11000
C695        C  0.20026006  0.83964616  0.62420165    -0.09500
C696        C  0.20797831  0.82360398  0.64930021    -0.11000
C697        C  0.23936540  0.87219903  0.51230243    -0.09500
C698        C  0.26125734  0.87230249  0.49054774    -0.11000
C699        C  0.04361704  0.10425180  0.57109436    -0.09500
C700        C  0.05154783  0.12935175  0.58704298    -0.11000
C701        C  0.12770071  0.91003236  0.55124836    -0.09500
C702        C  0.10279675  0.92675441  0.54326482    -0.11000
C703        C  0.92652242  0.96123005  0.60194954    -0.09500
C704        C  0.91015157  0.95334356  0.62690347    -0.11000
C705        C  0.39814940  0.57415824  0.95851540    -0.09500
C706        C  0.37286550  0.59045649  0.95089569    -0.11000
C707        C  0.60293907  0.42601501  0.04267632    -0.09500
C708        C  0.62804341  0.40973073  0.05078068    -0.11000
C709        C  0.45125343  0.37299616  0.91182988    -0.09500
C710        C  0.45905753  0.39824910  0.92759286    -0.11000
C711        C  0.41110471  0.45053881  0.12800127    -0.09500
C712        C  0.42682948  0.45817667  0.10263766    -0.11000
C713        C  0.37899748  0.48977745  0.23989020    -0.09500
C714        C  0.37892846  0.51165052  0.26139735    -0.11000
C715        C  0.70072622  0.84031035  0.87777180    -0.09500
C716        C  0.70801384  0.82470327  0.85232250    -0.11000
C717        C  0.80235421  0.83804736  0.12379748    -0.09500
C718        C  0.79485008  0.82233684  0.14913158    -0.11000
C719        C  0.76280028  0.87008505  0.01178762    -0.09500
C720        C  0.74083285  0.87032385  0.99008693    -0.11000
C721        C  0.95025122  0.87436982  0.41048423    -0.09500
C722        C  0.95756580  0.89971747  0.42629657    -0.11000
C723        C  0.87923693  0.79972545  0.34096807    -0.09500
C724        C  0.85424799  0.79181153  0.32447939    -0.11000
C725        C  0.99157340  0.76258571  0.37886300    -0.09500
C726        C  0.01364473  0.74090379  0.37908482    -0.11000
C727        C  0.66041466  0.87768283  0.29964718    -0.09500
C728        C  0.67679594  0.85268929  0.29159614    -0.11000
C729        C  0.62430865  0.98928127  0.26173910    -0.09500
C730        C  0.62429115  0.01090807  0.23991562    -0.11000
C731        C  0.91043781  0.54844508  0.12886710    -0.09500
C732        C  0.92654720  0.54138197  0.10355812    -0.11000
C733        C  0.84059077  0.62080841  0.20209690    -0.09500
C734        C  0.82456120  0.64613195  0.20966277    -0.11000
C735        C  0.87560371  0.48698036  0.26167297    -0.09500
C736        C  0.87547428  0.50864024  0.23987800    -0.11000
C737        C  0.59070335  0.04964267  0.12805499    -0.09500
C738        C  0.57464332  0.04219291  0.10281105    -0.11000
C739        C  0.60394866  0.92592217  0.96007672    -0.09500
C740        C  0.62896851  0.90923139  0.95244523    -0.11000
C741        C  0.42707292  0.95723751  0.89857798    -0.09500
C742        C  0.41107824  0.94932600  0.87340866    -0.11000
C743        C  0.55333049  0.12724118  0.91154886    -0.09500
C744        C  0.54545025  0.10205399  0.92745242    -0.11000
C745        C  0.12576115  0.19930721  0.65840346    -0.09500
C746        C  0.15064146  0.20669365  0.67532368    -0.11000
C747        C  0.32713380  0.14831907  0.71213361    -0.09500
C748        C  0.34342549  0.12324628  0.70418001    -0.11000
C749        C  0.35282917  0.29206162  0.82638621    -0.09500
C750        C  0.37788372  0.29966460  0.84297218    -0.11000
C751        C  0.17532282  0.64817607  0.70860644    -0.09500
C752        C  0.15894933  0.62307608  0.70122784    -0.11000
C753        C  0.09162731  0.45104748  0.87441507    -0.09500
C754        C  0.07562972  0.45896848  0.89954850    -0.11000
C755        C  0.15942687  0.37785306  0.79988829    -0.09500
C756        C  0.17565714  0.35276268  0.79196299    -0.11000
C757        C  0.12426639  0.48998860  0.76254127    -0.09500
C758        C  0.12407324  0.51174071  0.74086056    -0.11000
C759        C  0.19914133  0.16402116  0.87906662    -0.09500
C760        C  0.20702989  0.17936593  0.85360130    -0.11000
C761        C  0.39737364  0.07379130  0.04248023    -0.09500
C762        C  0.37238779  0.09052004  0.05024754    -0.11000
C763        C  0.26059991  0.12955983  0.01210955    -0.09500
C764        C  0.23838805  0.13007464  0.99063321    -0.11000
C765        C  0.42671050  0.54247221  0.39870017    -0.09500
C766        C  0.41083560  0.55037841  0.37346707    -0.11000
C767        C  0.66185961  0.37848955  0.70011304    -0.09500
C768        C  0.67807051  0.35341389  0.70806812    -0.11000
C769        C  0.59211431  0.45257873  0.62811367    -0.09500
C770        C  0.57583790  0.46021029  0.60303887    -0.11000
C771        C  0.66090746  0.62291405  0.80000344    -0.09500
C772        C  0.67663590  0.64824013  0.79185054    -0.11000
C773        C  0.59267547  0.54886000  0.87364103    -0.09500
C774        C  0.57620214  0.54115802  0.89858925    -0.11000
C775        C  0.62724948  0.48956238  0.73994900    -0.09500
C776        C  0.62739421  0.51083275  0.76203440    -0.11000
C777        C  0.54538164  0.39863406  0.42763638    -0.09500
C778        C  0.55249636  0.37344457  0.41149825    -0.11000
C779        C  0.48848871  0.24058516  0.37966285    -0.09500
C780        C  0.51047550  0.26225519  0.37933678    -0.11000
C781        C  0.29448358  0.32418200  0.64976284    -0.09500
C782        C  0.30176610  0.33992975  0.62438170    -0.11000
C783        C  0.39936436  0.42481359  0.54240891    -0.09500
C784        C  0.37429520  0.40830701  0.55010947    -0.11000
C785        C  0.26164569  0.37203726  0.51247894    -0.09500
C786        C  0.23972822  0.37216144  0.49070883    -0.11000
C787        C  0.37283860  0.91101076  0.45226505    -0.09500
C788        C  0.39788683  0.92764836  0.45986127    -0.11000
C789        C  0.42675877  0.04266107  0.60350482    -0.09500
C790        C  0.41097961  0.05032066  0.62888516    -0.11000
C791        C  0.57602851  0.95893207  0.39923900    -0.09500
C792        C  0.59206026  0.95094176  0.37408784    -0.11000
C793        C  0.44914785  0.12830259  0.41156609    -0.09500
C794        C  0.45699521  0.10306772  0.42739805    -0.11000
C795        C  0.37749655  0.70059375  0.65868042    -0.09500
C796        C  0.35260266  0.70820014  0.67549408    -0.11000
C797        C  0.45761505  0.60166580  0.57335027    -0.09500
C798        C  0.44983585  0.62698434  0.58902961    -0.11000
C799        C  0.62217379  0.79981588  0.65984908    -0.09500
C800        C  0.64710483  0.79212972  0.67667251    -0.11000
C801        C  0.54297320  0.89902343  0.57344437    -0.09500
C802        C  0.55054344  0.87360741  0.58917775    -0.11000
C803        C  0.51092357  0.76119747  0.62049581    -0.09500
C804        C  0.48896294  0.73946375  0.62038208    -0.11000
C805        C  0.30162850  0.16263236  0.12318633    -0.09500
C806        C  0.29409079  0.17881885  0.14823683    -0.11000
C807        C  0.32553286  0.35362054  0.20988436    -0.09500
C808        C  0.34218816  0.37848333  0.20230810    -0.11000
C809        C  0.35207073  0.21003909  0.32510744    -0.09500
C810        C  0.37683761  0.20216549  0.34197883    -0.11000
C811        C  0.20078288  0.34002216  0.37851371    -0.09500
C812        C  0.20833933  0.32435821  0.35312560    -0.11000
C813        C  0.20937753  0.67902676  0.14864234    -0.09500
C814        C  0.20145294  0.66321813  0.12347504    -0.11000
C815        C  0.15013715  0.70850268  0.32498984    -0.09500
C816        C  0.12515664  0.70105411  0.34168530    -0.11000
C817        C  0.32704622  0.64874582  0.29083129    -0.09500
C818        C  0.34324198  0.62356787  0.29859672    -0.11000
C819        C  0.29423578  0.82458983  0.35339682    -0.09500
C820        C  0.30141224  0.84051088  0.37870273    -0.11000
C821        C  0.16153503  0.87890298  0.20076157    -0.09500
C822        C  0.17766436  0.85373234  0.20868221    -0.11000
C823        C  0.09246880  0.05029137  0.37246143    -0.09500
C824        C  0.07636248  0.04264002  0.39760335    -0.11000
C825        C  0.17610667  0.14968206  0.29138325    -0.09500
C826        C  0.16012355  0.12441112  0.29903292    -0.11000
C827        C  0.12640261  0.01243076  0.26050631    -0.09500
C828        C  0.12655792  0.99081741  0.23870902    -0.11000
C829        C  0.54537853  0.60213194  0.07324652    -0.09500
C830        C  0.55321197  0.62722955  0.08921825    -0.11000
C831        C  0.62501292  0.70147494  0.15866460    -0.09500
C832        C  0.64977898  0.70946137  0.17544500    -0.11000
C833        C  0.45248174  0.87350168  0.09081499    -0.09500
C834        C  0.45997991  0.89861408  0.07465611    -0.11000
C835        C  0.37980725  0.80083017  0.16102952    -0.09500
C836        C  0.35476405  0.79319029  0.17757002    -0.11000
C837        C  0.51247356  0.73875349  0.12212067    -0.09500
C838        C  0.49065022  0.76064397  0.12241670    -0.11000
C839        C  0.05295843  0.62899159  0.41271460    -0.09500
C840        C  0.04514844  0.60385444  0.42864714    -0.11000
C841        C  0.07418976  0.54169678  0.60351883    -0.09500
C842        C  0.09005645  0.54921897  0.62882289    -0.11000
C843        C  0.10314376  0.42711238  0.45905051    -0.09500
C844        C  0.12812656  0.41030623  0.45144352    -0.11000
C845        C  0.91034147  0.45116378  0.37404247    -0.09500
C846        C  0.92639586  0.45948137  0.39900576    -0.11000
C847        C  0.95887966  0.39980199  0.57396553    -0.09500
C848        C  0.95180787  0.37469601  0.59032541    -0.11000
C849        C  0.70727723  0.67754416  0.35270655    -0.09500
C850        C  0.69960838  0.66198827  0.37808297    -0.11000
C851        C  0.62753348  0.59264655  0.45197918    -0.09500
C852        C  0.60273307  0.57569047  0.45954380    -0.11000
C853        C  0.80070029  0.66235540  0.62423150    -0.09500
C854        C  0.79317235  0.67807909  0.64952453    -0.11000
C855        C  0.87274067  0.59289623  0.55032745    -0.09500
C856        C  0.89776380  0.57624627  0.54263454    -0.11000
C857        C  0.73889851  0.63142025  0.49054466    -0.09500
C858        C  0.76087862  0.63132920  0.51221880    -0.11000
C859        C  0.67594413  0.14769648  0.20917545    -0.09500
C860        C  0.65991129  0.12244305  0.20149830    -0.11000
C861        C  0.70138378  0.34164077  0.12483538    -0.09500
C862        C  0.70870749  0.32552223  0.14998355    -0.11000
C863        C  0.64692409  0.29148334  0.32335644    -0.09500
C864        C  0.62196163  0.29939911  0.33985065    -0.11000
C865        C  0.84190736  0.37568858  0.30259920    -0.09500
C866        C  0.82566541  0.35052343  0.29507488    -0.11000
C867        C  0.70080021  0.16316172  0.62389247    -0.09500
C868        C  0.70876772  0.17906374  0.64894746    -0.11000
C869        C  0.62766205  0.09282316  0.55189415    -0.09500
C870        C  0.60271961  0.07614570  0.54414715    -0.11000
C871        C  0.87318679  0.09199687  0.45078089    -0.09500
C872        C  0.89851080  0.07562182  0.45811497    -0.11000
C873        C  0.79880665  0.16046710  0.37805986    -0.09500
C874        C  0.79108384  0.17616440  0.35276745    -0.11000
C875        C  0.76138273  0.12855491  0.49062829    -0.09500
C876        C  0.73962634  0.12886590  0.51248823    -0.11000
C877        C  0.87743145  0.20029399  0.16025770    -0.09500
C878        C  0.85225866  0.20782842  0.17664016    -0.11000
C879        C  0.04139749  0.39818091  0.07272490    -0.09500
C880        C  0.04878156  0.37284213  0.08863312    -0.11000
C881        C  0.12238481  0.30234331  0.16018088    -0.09500
C882        C  0.14758366  0.29515559  0.17676594    -0.11000
C883        C  0.98976665  0.23846429  0.12359172    -0.09500
C884        C  0.01145201  0.26049136  0.12331646    -0.11000
C885        C  0.12572316  0.09473883  0.95184361    -0.09500
C886        C  0.10076031  0.07781169  0.95904707    -0.11000
C887        C  0.07639788  0.95948029  0.10187389    -0.09500
C888        C  0.09274015  0.95206286  0.12698665    -0.11000
C889        C  0.94901476  0.12707935  0.08993348    -0.09500
C890        C  0.95609669  0.10190561  0.07374887    -0.11000
C891        C  0.89935342  0.92479328  0.04288090    -0.09500
C892        C  0.87444666  0.90801525  0.05050914    -0.11000
C893        C  0.90782823  0.04692987  0.87326847    -0.09500
C894        C  0.92400687  0.03929397  0.89841782    -0.11000
C895        C  0.04413860  0.90030737  0.92674767    -0.09500
C896        C  0.05191000  0.87522163  0.91073428    -0.11000
loop_ 
_geom_bond_atom_site_label_1 
_geom_bond_atom_site_label_2 
_geom_bond_distance 
_geom_bond_site_symmetry_2 
_ccdc_geom_bond_type 
O1           C17   1.274       .  A
O1           Zn7   2.023   1_554  S
C2           O18   1.274   1_545  A
C2           O15   1.272       .  A
C2          C894   1.437       .  S
O3           C16   1.272       .  A
O3          Cd10   2.067       .  S
O4           C22   1.273       .  A
O4          Cd13   2.074   1_455  S
O5           C19   1.273       .  A
O5           Cd9   2.072   1_545  S
O6           C17   1.272       .  A
O6           Cd9   2.067       .  S
Zn7          O18   2.029       .  S
Zn7          O20   2.021   1_655  S
Zn7          O12   1.948   1_566  S
O8           C19   1.273       .  A
O8          Cd13   2.066   1_554  S
Cd9          O11   2.070   1_655  S
Cd9          O12   2.005   1_565  S
Cd10         O14   2.078   1_556  S
Cd10         O23   2.070   1_565  S
Cd10         O12   2.005   1_466  S
O11          C21   1.273       .  A
O12         Cd13   2.004   1_554  S
Cd13         O15   2.069       .  S
O14          C21   1.274       .  A
C16          O20   1.274       .  A
C16         C895   1.434       .  S
C17         C891   1.434       .  S
C19         C890   1.433       .  S
C21         C887   1.437       .  S
C22          O23   1.273       .  A
C22         C886   1.436       .  S
C24         C880   1.436       .  S
C24          N25   1.357       .  A
C24          N29   1.359       .  A
N25          C26   1.356       .  A
C26         C884   1.433       .  S
C26          N27   1.355       .  A
N27          C28   1.356       .  A
C28         C881   1.435       .  S
C28          N29   1.359       .  A
C30         C877   1.434       .  S
C30          N31   1.356       .  A
C30          N35   1.358       .  A
N31          C32   1.355       .  A
C32         C883   1.433       .  S
C32          N33   1.355       .  A
N33          C34   1.357       .  A
C34         C889   1.434       .  S
C34          N35   1.358       .  A
C36         C871   1.434       .  S
C36          N37   1.356       .  A
C36          N41   1.359       .  A
N37          C38   1.355       .  A
C38         C875   1.431       .  S
C38          N39   1.355       .  A
N39          C40   1.356       .  A
C40         C873   1.434       .  S
C40          N41   1.359       .  A
C42         C867   1.435       .  S
C42          N43   1.356       .  A
C42          N47   1.360       .  A
N43          C44   1.355       .  A
C44         C876   1.431       .  S
C44          N45   1.354       .  A
N45          C46   1.356       .  A
C46         C869   1.435       .  S
C46          N47   1.359       .  A
O48          C64   1.274       .  A
O48         Zn54   2.022       .  S
C49          O65   1.274       .  A
C49          O62   1.272       .  A
C49         C859   1.437       .  S
O50          C63   1.272       .  A
O50         Cd57   2.066       .  S
O51          C69   1.273       .  A
O51         Cd60   2.071       .  S
O52          C66   1.273       .  A
O52         Cd56   2.074       .  S
O53          C64   1.272       .  A
O53         Cd56   2.063       .  S
Zn54         O65   2.027       .  S
Zn54         O67   2.024       .  S
Zn54         O59   1.948       .  S
O55          C66   1.273       .  A
O55         Cd60   2.068       .  S
Cd56         O58   2.069       .  S
Cd56         O59   2.004       .  S
Cd57         O61   2.077       .  S
Cd57         O70   2.067       .  S
Cd57         O59   2.004       .  S
O58          C68   1.273       .  A
O59         Cd60   2.004       .  S
Cd60         O62   2.069       .  S
O61          C68   1.274       .  A
C63          O67   1.274       .  A
C63         C874   1.434       .  S
C64         C863   1.432       .  S
C66         C862   1.435       .  S
C68         C866   1.436       .  S
C69          O70   1.273       .  A
C69         C878   1.433       .  S
C71         C853   1.434       .  S
C71          N72   1.356       .  A
C71          N76   1.359       .  A
N72          C73   1.355       .  A
C73         C858   1.432       .  S
C73          N74   1.355       .  A
N74          C75   1.356       .  A
C75         C855   1.435       .  S
C75          N76   1.359       .  A
C77         C851   1.434       .  S
C77          N78   1.359       .  A
C77          N82   1.356       .  A
N78          C79   1.359       .  A
C79         C850   1.435       .  S
C79          N80   1.357       .  A
N80          C81   1.355       .  A
C81         C857   1.432       .  S
C81          N82   1.354       .  A
O83          C99   1.274       .  A
O83         Zn89   2.024       .  S
C84         O100   1.273   1_655  A
C84          O97   1.273       .  A
C84         C847   1.435       .  S
O85          C98   1.272       .  A
O85         Cd92   2.070       .  S
O86         C104   1.274       .  A
O86         Cd95   2.075       .  S
O87         C101   1.273       .  A
O87         Cd91   2.072   1_655  S
O88          C99   1.272       .  A
O88         Cd91   2.065       .  S
Zn89        O100   2.021       .  S
Zn89        O102   2.026       .  S
Zn89         O94   1.948       .  S
O90         C101   1.273       .  A
O90         Cd95   2.071       .  S
Cd91         O93   2.067       .  S
Cd91         O94   2.004       .  S
Cd92         O96   2.073       .  S
Cd92        O105   2.070   1_455  S
Cd92         O94   2.005       .  S
O93         C103   1.273       .  A
O94         Cd95   2.006   1_455  S
Cd95         O97   2.070       .  S
O96         C103   1.273       .  A
C98         O102   1.274       .  A
C98         C843   1.437       .  S
C99         C841   1.435       .  S
C101        C856   1.435       .  S
C103        C840   1.434       .  S
C104        O105   1.273       .  A
C104        C846   1.436       .  S
C106        C835   1.434       .  S
C106        N107   1.356       .  A
C106        N111   1.360       .  A
N107        C108   1.354       .  A
C108        C838   1.430       .  S
C108        N109   1.355       .  A
N109        C110   1.356       .  A
C110        C833   1.435       .  S
C110        N111   1.360       .  A
C112        C831   1.434       .  S
C112        N113   1.360       .  A
C112        N117   1.355       .  A
N113        C114   1.360       .  A
C114        C830   1.435       .  S
C114        N115   1.356       .  A
N115        C116   1.354       .  A
C116        C837   1.430       .  S
C116        N117   1.354       .  A
C118        C823   1.436       .  S
C118        N119   1.359       .  A
C118        N123   1.357       .  A
N119        C120   1.359       .  A
C120        C826   1.435       .  S
C120        N121   1.356       .  A
N121        C122   1.355       .  A
C122        C827   1.433       .  S
C122        N123   1.355       .  A
C124        C888   1.437       .  S
C124        N125   1.360       .  A
C124        N129   1.357       .  A
N125        C126   1.360       .  A
C126        C821   1.436       .  S
C126        N127   1.356       .  A
N127        C128   1.355       .  A
C128        C828   1.434       .  S
C128        N129   1.356       .  A
O130        C146   1.274       .  A
O130       Zn136   2.029       .  S
C131        O147   1.274       .  A
C131        O144   1.272       .  A
C131        C813   1.437       .  S
O132        C145   1.272       .  A
O132       Cd139   2.066       .  S
O133        C151   1.274       .  A
O133       Cd142   2.076       .  S
O134        C148   1.273       .  A
O134       Cd138   2.070       .  S
O135        C146   1.272       .  A
O135       Cd138   2.067       .  S
Zn136       O147   2.028       .  S
Zn136       O149   2.024       .  S
Zn136       O141   1.949       .  S
O137        C148   1.273       .  A
O137       Cd142   2.069       .  S
Cd138       O140   2.070       .  S
Cd138       O141   2.004       .  S
Cd139       O143   2.077       .  S
Cd139       O152   2.070       .  S
Cd139       O141   2.006       .  S
O140        C150   1.273       .  A
O141       Cd142   2.006       .  S
Cd142       O144   2.069       .  S
O143        C150   1.274       .  A
C145        O149   1.274       .  A
C145        C836   1.434       .  S
C146        C817   1.436       .  S
C148        C815   1.434       .  S
C150        C819   1.436       .  S
C151        O152   1.273       .  A
C151        C822   1.436       .  S
O153        C169   1.274       .  A
O153       Zn159   2.024       .  S
C154        O170   1.274       .  A
C154        O167   1.273       .  A
C154        C812   1.438       .  S
O155        C168   1.272       .  A
O155       Cd162   2.064       .  S
O156        C174   1.274       .  A
O156       Cd165   2.074       .  S
O157        C171   1.274       .  A
O157       Cd161   2.074       .  S
O158        C169   1.272       .  A
O158       Cd161   2.067       .  S
Zn159       O170   2.028       .  S
Zn159       O172   2.023       .  S
Zn159       O164   1.949       .  S
O160        C171   1.274       .  A
O160       Cd165   2.071       .  S
Cd161       O163   2.073       .  S
Cd161       O164   2.005       .  S
Cd162       O166   2.076       .  S
Cd162       O175   2.067       .  S
Cd162       O164   2.005       .  S
O163        C173   1.274       .  A
O164       Cd165   2.006       .  S
Cd165       O167   2.072       .  S
O166        C173   1.274       .  A
C168        O172   1.274       .  A
C168        C809   1.434       .  S
C169        C807   1.435       .  S
C171        C882   1.435       .  S
C173        C806   1.437       .  S
C174        O175   1.273       .  A
C174        C825   1.435       .  S
C176        C802   1.437       .  S
C176        N177   1.356       .  A
C176        N181   1.360       .  A
N177        C178   1.355       .  A
C178        C803   1.432       .  S
C178        N179   1.355       .  A
N179        C180   1.356       .  A
C180        C799   1.437       .  S
C180        N181   1.360       .  A
C182        C795   1.435       .  S
C182        N183   1.356       .  A
C182        N187   1.360       .  A
N183        C184   1.355       .  A
C184        C804   1.432       .  S
C184        N185   1.355       .  A
N185        C186   1.356       .  A
C186        C798   1.435       .  S
C186        N187   1.360       .  A
O188        C204   1.274       .  A
O188       Zn194   2.026       .  S
C189        O205   1.274       .  A
C189        O202   1.272       .  A
C189        C789   1.438       .  S
O190        C203   1.273       .  A
O190       Cd197   2.070       .  S
O191        C209   1.273       .  A
O191       Cd200   2.068       .  S
O192        C206   1.274       .  A
O192       Cd196   2.073   1_545  S
O193        C204   1.273       .  A
O193       Cd196   2.070       .  S
Zn194       O205   2.032   1_565  S
Zn194       O207   2.027       .  S
Zn194       O199   1.950   1_565  S
O195        C206   1.273       .  A
O195       Cd200   2.071       .  S
Cd196       O198   2.082       .  S
Cd196       O199   2.008   1_565  S
Cd197       O201   2.075       .  S
Cd197       O210   2.075   1_565  S
Cd197       O199   2.007   1_565  S
O198        C208   1.274       .  A
O199       Cd200   2.006       .  S
Cd200       O202   2.069       .  S
O201        C208   1.274       .  A
C203        O207   1.274       .  A
C203        C788   1.436       .  S
C204        C801   1.437       .  S
C206        C870   1.435       .  S
C208        C791   1.440       .  S
C209        O210   1.274       .  A
C209        C794   1.435       .  S
C211        C784   1.434       .  S
C211        N212   1.356       .  A
C211        N216   1.359       .  A
N212        C213   1.355       .  A
C213        C785   1.433       .  S
C213        N214   1.355       .  A
N214        C215   1.357       .  A
C215        C782   1.435       .  S
C215        N216   1.359       .  A
C217        C811   1.438       .  S
C217        N218   1.357       .  A
C217        N222   1.360       .  A
N218        C219   1.355       .  A
C219        C786   1.433       .  S
C219        N220   1.355       .  A
N220        C221   1.356       .  A
C221        C844   1.437       .  S
C221        N222   1.360       .  A
C223        C864   1.433       .  S
C223        N224   1.355       .  A
C223        N228   1.359       .  A
N224        C225   1.354       .  A
C225        C780   1.430       .  S
C225        N226   1.354       .  A
N226        C227   1.356       .  A
C227        C778   1.433       .  S
C227        N228   1.359       .  A
C229        C793   1.435       .  S
C229        N230   1.356       .  A
C229        N234   1.360       .  A
N230        C231   1.355       .  A
C231        C779   1.430       .  S
C231        N232   1.354       .  A
N232        C233   1.355       .  A
C233        C810   1.434       .  S
C233        N234   1.360       .  A
C235        C771   1.438       .  S
C235        N236   1.356       .  A
C235        N240   1.361       .  A
N236        C237   1.354       .  A
C237        C776   1.431       .  S
C237        N238   1.355       .  A
N238        C239   1.357       .  A
C239        C773   1.439       .  S
C239        N240   1.361       .  A
C241        C769   1.436       .  S
C241        N242   1.357       .  A
C241        N246   1.360       .  A
N242        C243   1.355       .  A
C243        C775   1.431       .  S
C243        N244   1.354       .  A
N244        C245   1.355       .  A
C245        C767   1.434       .  S
C245        N246   1.360       .  A
O247        C263   1.274       .  A
O247       Zn253   2.027       .  S
C248        O264   1.274       .  A
C248        O261   1.272       .  A
C248        C852   1.434       .  S
O249        C262   1.272       .  A
O249       Cd256   2.067       .  S
O250        C268   1.273       .  A
O250       Cd259   2.069       .  S
O251        C265   1.273       .  A
O251       Cd255   2.067       .  S
O252        C263   1.272       .  A
O252       Cd255   2.067       .  S
Zn253       O264   2.023       .  S
Zn253       O266   2.023       .  S
Zn253       O258   1.947       .  S
O254        C265   1.273       .  A
O254       Cd259   2.072       .  S
Cd255       O257   2.072       .  S
Cd255       O258   2.004       .  S
Cd256       O260   2.069       .  S
Cd256       O269   2.075       .  S
Cd256       O258   2.005       .  S
O257        C267   1.273       .  A
O258       Cd259   2.005       .  S
Cd259       O261   2.066       .  S
O260        C267   1.273       .  A
C262        O266   1.273       .  A
C262        C797   1.435       .  S
C263        C770   1.436       .  S
C265        C777   1.433       .  S
C267        C783   1.434       .  S
C268        O269   1.273       .  A
C268        C765   1.436       .  S
C270        C805   1.437       .  S
C270        N271   1.360       .  A
C270        N275   1.356       .  A
N271        C272   1.360       .  A
C272        C762   1.437       .  S
C272        N273   1.357       .  A
N273        C274   1.355       .  A
C274        C763   1.433       .  S
C274        N275   1.355       .  A
C276        C885   1.436       .  S
C276        N277   1.357       .  A
C276        N281   1.360       .  A
N277        C278   1.355       .  A
C278        C764   1.433       .  S
C278        N279   1.355       .  A
N279        C280   1.357       .  A
C280        C759   1.436       .  S
C280        N281   1.360       .  A
C282        C753   1.437       .  S
C282        N283   1.356       .  A
C282        N287   1.360       .  A
N283        C284   1.355       .  A
C284        C757   1.433       .  S
C284        N285   1.355       .  A
N285        C286   1.356       .  A
C286        C755   1.437       .  S
C286        N287   1.360       .  A
C288        C842   1.435       .  S
C288        N289   1.359       .  A
C288        N293   1.356       .  A
N289        C290   1.359       .  A
C290        C752   1.435       .  S
C290        N291   1.356       .  A
N291        C292   1.355       .  A
C292        C758   1.432       .  S
C292        N293   1.355       .  A
O294        C310   1.275       .  A
O294       Zn300   2.034       .  S
C295        O311   1.274       .  A
C295        O308   1.272       .  A
C295        C749   1.436       .  S
O296        C309   1.273       .  A
O296       Cd303   2.069       .  S
O297        C315   1.273       .  A
O297       Cd306   2.071       .  S
O298        C312   1.273       .  A
O298       Cd302   2.067       .  S
O299        C310   1.272       .  A
O299       Cd302   2.067       .  S
Zn300       O311   2.026       .  S
Zn300       O313   2.026       .  S
Zn300       O305   1.950       .  S
O301        C312   1.274       .  A
O301       Cd306   2.077       .  S
Cd302       O304   2.072       .  S
Cd302       O305   2.004       .  S
Cd303       O307   2.072       .  S
Cd303       O316   2.077       .  S
Cd303       O305   2.007       .  S
O304        C314   1.273       .  A
O305       Cd306   2.007       .  S
Cd306       O308   2.068       .  S
O307        C314   1.274       .  A
C309        O313   1.274       .  A
C309        C760   1.436       .  S
C310        C747   1.438       .  S
C312        C781   1.435       .  S
C314        C746   1.435       .  S
C315        O316   1.274       .  A
C315        C756   1.437       .  S
O317        C333   1.273   1_565  A
O317       Zn323   2.025       .  S
C318        O334   1.273       .  A
C318        O331   1.272       .  A
C318        C834   1.435       .  S
O319        C332   1.272       .  A
O319       Cd326   2.068       .  S
O320        C338   1.274       .  A
O320       Cd329   2.079   1_556  S
O321        C335   1.274       .  A
O321       Cd325   2.075       .  S
O322        C333   1.273       .  A
O322       Cd325   2.071       .  S
Zn323       O334   2.023       .  S
Zn323       O336   2.024       .  S
Zn323       O328   1.950       .  S
O324        C335   1.274       .  A
O324       Cd329   2.074   1_545  S
Cd325       O327   2.072   1_554  S
Cd325       O328   2.006   1_545  S
Cd326       O330   2.076   1_565  S
Cd326       O339   2.073       .  S
Cd326       O328   2.006   1_556  S
O327        C337   1.274       .  A
O328       Cd329   2.007       .  S
Cd329       O331   2.069       .  S
O330        C337   1.274       .  A
C332        O336   1.274   1_556  A
C332        C739   1.435       .  S
C333        C738   1.437       .  S
C335        C761   1.437       .  S
C337        C744   1.437       .  S
C338        O339   1.274       .  A
C338        C741   1.438       .  S
C340        C865   1.437       .  S
C340        N341   1.357       .  A
C340        N345   1.360       .  A
N341        C342   1.355       .  A
C342        C735   1.434       .  S
C342        N343   1.355       .  A
N343        C344   1.356       .  A
C344        C845   1.436       .  S
C344        N345   1.360       .  A
C346        C733   1.437       .  S
C346        N347   1.357       .  A
C346        N351   1.359       .  A
N347        C348   1.355       .  A
C348        C736   1.434       .  S
C348        N349   1.355       .  A
N349        C350   1.357       .  A
C350        C731   1.436       .  S
C350        N351   1.360       .  A
C352        C737   1.437       .  S
C352        N353   1.357       .  A
C352        N357   1.360       .  A
N353        C354   1.355       .  A
C354        C730   1.433       .  S
C354        N355   1.355       .  A
N355        C356   1.356       .  A
C356        C860   1.437       .  S
C356        N357   1.360       .  A
C358        C792   1.440       .  S
C358        N359   1.357       .  A
C358        N363   1.362       .  A
N359        C360   1.355       .  A
C360        C729   1.433       .  S
C360        N361   1.355       .  A
N361        C362   1.356       .  A
C362        C727   1.439       .  S
C362        N363   1.362       .  A
C364        C839   1.434       .  S
C364        N365   1.359       .  A
C364        N369   1.356       .  A
N365        C366   1.359       .  A
C366        C816   1.434       .  S
C366        N367   1.356       .  A
N367        C368   1.355       .  A
C368        C726   1.432       .  S
C368        N369   1.355       .  A
C370        C723   1.434       .  S
C370        N371   1.359       .  A
C370        N375   1.356       .  A
N371        C372   1.359       .  A
C372        C721   1.435       .  S
C372        N373   1.356       .  A
N373        C374   1.355       .  A
C374        C725   1.432       .  S
C374        N375   1.355       .  A
C376        C892   1.434       .  S
C376        N377   1.356       .  A
C376        N381   1.359       .  A
N377        C378   1.355       .  A
C378        C719   1.432       .  S
C378        N379   1.355       .  A
N379        C380   1.357       .  A
C380        C717   1.435       .  S
C380        N381   1.359       .  A
C382        C715   1.435       .  S
C382        N383   1.359       .  A
C382        N387   1.357       .  A
N383        C384   1.359       .  A
C384        C740   1.435       .  S
C384        N385   1.356       .  A
N385        C386   1.355       .  A
C386        C720   1.432       .  S
C386        N387   1.355       .  A
O388        C404   1.275       .  A
O388       Zn394   2.034       .  S
C389        O405   1.274       .  A
C389        O402   1.273       .  A
C389        C718   1.435       .  S
O390        C403   1.272       .  A
O390       Cd397   2.063       .  S
O391        C409   1.274       .  A
O391       Cd400   2.077       .  S
O392        C406   1.273       .  A
O392       Cd396   2.071       .  S
O393        C404   1.272       .  A
O393       Cd396   2.069       .  S
Zn394       O405   2.023       .  S
Zn394       O407   2.026       .  S
Zn394       O399   1.949       .  S
O395        C406   1.273       .  A
O395       Cd400   2.069       .  S
Cd396       O398   2.067       .  S
Cd396       O399   2.003       .  S
Cd397       O401   2.074       .  S
Cd397       O410   2.070       .  S
Cd397       O399   2.005       .  S
O398        C408   1.273       .  A
O399       Cd400   2.006       .  S
Cd400       O402   2.069       .  S
O401        C408   1.273       .  A
C403        O407   1.274       .  A
C403        C832   1.434       .  S
C404        C728   1.439       .  S
C406        C724   1.434       .  S
C408        C849   1.434       .  S
C409        O410   1.273       .  A
C409        C734   1.436       .  S
C411        C766   1.436       .  S
C411        N412   1.356       .  A
C411        N416   1.360       .  A
N412        C413   1.355       .  A
C413        C714   1.432       .  S
C413        N414   1.355       .  A
N414        C415   1.356       .  A
C415        C818   1.436       .  S
C415        N416   1.360       .  A
C417        C711   1.435       .  S
C417        N418   1.356       .  A
C417        N422   1.359       .  A
N418        C419   1.355       .  A
C419        C713   1.432       .  S
C419        N420   1.355       .  A
N420        C421   1.356       .  A
C421        C808   1.435       .  S
C421        N422   1.359       .  A
O423        C439   1.274       .  A
O423       Zn429   2.031       .  S
C424        O440   1.274       .  A
C424        O437   1.271       .  A
C424        C707   1.432       .  S
O425        C438   1.272       .  A
O425       Cd432   2.067       .  S
O426        C444   1.272       .  A
O426       Cd435   2.066       .  S
O427        C441   1.273       .  A
O427       Cd431   2.071   1_554  S
O428        C439   1.273       .  A
O428       Cd431   2.072       .  S
Zn429       O440   2.024   1_556  S
Zn429       O442   2.026       .  S
Zn429       O434   1.949   1_556  S
O430        C441   1.273       .  A
O430       Cd435   2.071       .  S
Cd431       O433   2.074       .  S
Cd431       O434   2.005   1_556  S
Cd432       O436   2.068       .  S
Cd432       O445   2.077   1_556  S
Cd432       O434   2.006   1_556  S
O433        C443   1.274       .  A
O434       Cd435   2.004       .  S
Cd435       O437   2.059       .  S
O436        C443   1.273       .  A
C438        O442   1.274       .  A
C438        C710   1.436       .  S
C439        C774   1.439       .  S
C441        C829   1.435       .  S
C443        C705   1.434       .  S
C444        O445   1.273       .  A
C444        C712   1.435       .  S
O446        C462   1.274       .  A
O446       Zn452   2.022       .  S
C447        O463   1.274   1_565  A
C447        O460   1.272       .  A
C447        C703   1.439       .  S
O448        C461   1.272       .  A
O448       Cd455   2.068       .  S
O449        C467   1.273       .  A
O449       Cd458   2.072   1_455  S
O450        C464   1.274       .  A
O450       Cd454   2.075   1_565  S
O451        C462   1.272       .  A
O451       Cd454   2.067       .  S
Zn452       O463   2.032       .  S
Zn452       O465   2.025   1_655  S
Zn452       O457   1.949   1_655  S
O453        C464   1.273       .  A
O453       Cd458   2.068       .  S
Cd454       O456   2.070   1_655  S
Cd454       O457   2.006   1_655  S
Cd455       O459   2.077       .  S
Cd455       O468   2.071   1_545  S
Cd455       O457   2.006       .  S
O456        C466   1.273       .  A
O457       Cd458   2.004   1_445  S
Cd458       O460   2.070       .  S
O459        C466   1.274       .  A
C461        O465   1.274       .  A
C461        C699   1.436       .  S
C462        C872   1.434       .  S
C464        C722   1.435       .  S
C466        C824   1.436       .  S
C467        O468   1.274       .  A
C467        C702   1.435       .  S
C469        C820   1.437       .  S
C469        N470   1.360       .  A
C469        N474   1.357       .  A
N470        C471   1.360       .  A
C471        C787   1.436       .  S
C471        N472   1.356       .  A
N472        C473   1.355       .  A
C473        C698   1.433       .  S
C473        N474   1.355       .  A
C475        C701   1.435       .  S
C475        N476   1.356       .  A
C475        N480   1.360       .  A
N476        C477   1.355       .  A
C477        C697   1.432       .  S
C477        N478   1.355       .  A
N478        C479   1.356       .  A
C479        C695   1.436       .  S
C479        N480   1.360       .  A
C481        C750   1.436       .  S
C481        N482   1.356       .  A
C481        N486   1.360       .  A
N482        C483   1.355       .  A
C483        C693   1.431       .  S
C483        N484   1.355       .  A
N484        C485   1.356       .  A
C485        C709   1.436       .  S
C485        N486   1.360       .  A
C487        C743   1.437       .  S
C487        N488   1.356       .  A
C487        N492   1.361       .  A
N488        C489   1.354       .  A
C489        C694   1.431       .  S
C489        N490   1.354       .  A
N490        C491   1.356       .  A
C491        C692   1.436       .  S
C491        N492   1.361       .  A
C493        C745   1.435       .  S
C493        N494   1.360       .  A
C493        N498   1.356       .  A
N494        C495   1.360       .  A
C495        C700   1.436       .  S
C495        N496   1.357       .  A
N496        C497   1.355       .  A
C497        C690   1.432       .  S
C497        N498   1.354       .  A
C499        C848   1.435       .  S
C499        N500   1.356       .  A
C499        N504   1.360       .  A
N500        C501   1.355       .  A
C501        C689   1.432       .  S
C501        N502   1.355       .  A
N502        C503   1.356       .  A
C503        C688   1.435       .  S
C503        N504   1.360       .  A
C505        C708   1.432       .  S
C505        N506   1.355       .  A
C505        N510   1.359       .  A
N506        C507   1.354       .  A
C507        C686   1.431       .  S
C507        N508   1.355       .  A
N508        C509   1.357       .  A
C509        C861   1.435       .  S
C509        N510   1.359       .  A
C511        C681   1.435       .  S
C511        N512   1.360       .  A
C511        N516   1.355       .  A
N512        C513   1.360       .  A
C513        C684   1.436       .  S
C513        N514   1.356       .  A
N514        C515   1.355       .  A
C515        C685   1.431       .  S
C515        N516   1.354       .  A
O517        C533   1.274       .  A
O517       Zn523   2.027       .  S
C518        O534   1.274       .  A
C518        O531   1.272       .  A
C518        C768   1.435       .  S
O519        C532   1.272       .  A
O519       Cd526   2.067       .  S
O520        C538   1.273       .  A
O520       Cd529   2.068       .  S
O521        C535   1.274       .  A
O521       Cd525   2.074       .  S
O522        C533   1.273       .  A
O522       Cd525   2.070       .  S
Zn523       O534   2.027       .  S
Zn523       O536   2.029       .  S
Zn523       O528   1.950       .  S
O524        C535   1.273       .  A
O524       Cd529   2.070       .  S
Cd525       O527   2.079       .  S
Cd525       O528   2.007       .  S
Cd526       O530   2.068       .  S
Cd526       O539   2.074       .  S
Cd526       O528   2.004       .  S
O527        C537   1.274       .  A
O528       Cd529   2.004       .  S
Cd529       O531   2.063       .  S
O530        C537   1.273       .  A
C532        O536   1.274       .  A
C532        C691   1.436       .  S
C533        C683   1.436       .  S
C535        C687   1.435       .  S
C537        C680   1.437       .  S
C538        O539   1.273       .  A
C538        C868   1.435       .  S
C540        C675   1.434       .  S
C540        N541   1.359       .  A
C540        N545   1.356       .  A
N541        C542   1.359       .  A
C542        C896   1.434       .  S
C542        N543   1.356       .  A
N543        C544   1.354       .  A
C544        C677   1.432       .  S
C544        N545   1.355       .  A
C546        C671   1.435       .  S
C546        N547   1.356       .  A
C546        N551   1.359       .  A
N547        C548   1.355       .  A
C548        C678   1.432       .  S
C548        N549   1.355       .  A
N549        C550   1.356       .  A
C550        C673   1.435       .  S
C550        N551   1.359       .  A
C552        C893   1.437       .  S
C552        N553   1.360       .  A
C552        N557   1.357       .  A
N553        C554   1.360       .  A
C554        C679   1.437       .  S
C554        N555   1.357       .  A
N555        C556   1.355       .  A
C556        C669   1.434       .  S
C556        N557   1.355       .  A
C558        C704   1.439       .  S
C558        N559   1.357       .  A
C558        N563   1.361       .  A
N559        C560   1.355       .  A
C560        C670   1.434       .  S
C560        N561   1.355       .  A
N561        C562   1.356       .  A
C562        C667   1.438       .  S
C562        N563   1.361       .  A
O564        C580   1.274       .  A
O564       Zn570   2.023       .  S
C565        O581   1.275       .  A
C565        O578   1.272       .  A
C565        C772   1.438       .  S
O566        C579   1.273       .  A
O566       Cd573   2.071       .  S
O567        C585   1.273       .  A
O567       Cd576   2.066       .  S
O568        C582   1.273       .  A
O568       Cd572   2.072       .  S
O569        C580   1.272       .  A
O569       Cd572   2.067       .  S
Zn570       O581   2.034       .  S
Zn570       O583   2.029       .  S
Zn570       O575   1.950       .  S
O571        C582   1.273       .  A
O571       Cd576   2.071       .  S
Cd572       O574   2.078       .  S
Cd572       O575   2.007       .  S
Cd573       O577   2.075       .  S
Cd573       O586   2.077       .  S
Cd573       O575   2.007       .  S
O574        C584   1.274       .  A
O575       Cd576   2.005       .  S
Cd576       O578   2.067       .  S
O577        C584   1.274       .  A
C579        O583   1.274       .  A
C579        C800   1.437       .  S
C580        C854   1.434       .  S
C582        C674   1.435       .  S
C584        C668   1.439       .  S
C585        O586   1.274       .  A
C585        C716   1.435       .  S
O587        C603   1.274       .  A
O587       Zn593   2.025       .  S
C588        O604   1.274   1_556  A
C588        O601   1.272       .  A
C588        C682   1.435       .  S
O589        C602   1.273       .  A
O589       Cd596   2.070       .  S
O590        C608   1.273       .  A
O590       Cd599   2.070   1_455  S
O591        C605   1.273       .  A
O591       Cd595   2.068   1_556  S
O592        C603   1.272       .  A
O592       Cd595   2.069       .  S
Zn593       O604   2.024       .  S
Zn593       O606   2.022       .  S
Zn593       O598   1.948   1_655  S
O594        C605   1.274       .  A
O594       Cd599   2.074       .  S
Cd595       O597   2.072   1_655  S
Cd595       O598   2.005   1_655  S
Cd596       O600   2.075       .  S
Cd596       O609   2.077   1_554  S
Cd596       O598   2.007       .  S
O597        C607   1.273       .  A
O598       Cd599   2.006   1_454  S
Cd599       O601   2.068       .  S
O600        C607   1.274       .  A
C602        O606   1.273   1_455  A
C602        C879   1.436       .  S
C603        C732   1.436       .  S
C605        C672   1.434       .  S
C607        C665   1.436       .  S
C608        O609   1.274       .  A
C608        C754   1.436       .  S
C610        C790   1.438       .  S
C610        N611   1.356       .  A
C610        N615   1.361       .  A
N611        C612   1.355       .  A
C612        C663   1.433       .  S
C612        N613   1.355       .  A
N613        C614   1.356       .  A
C614        C748   1.438       .  S
C614        N615   1.361       .  A
C616        C742   1.438       .  S
C616        N617   1.356       .  A
C616        N621   1.361       .  A
N617        C618   1.355       .  A
C618        C664   1.433       .  S
C618        N619   1.355       .  A
N619        C620   1.356       .  A
C620        C662   1.438       .  S
C620        N621   1.361       .  A
C622        C666   1.436       .  S
C622        N623   1.360       .  A
C622        N627   1.356       .  A
N623        C624   1.360       .  A
C624        C814   1.437       .  S
C624        N625   1.357       .  A
N625        C626   1.355       .  A
C626        C660   1.433       .  S
C626        N627   1.355       .  A
C628        C706   1.434       .  S
C628        N629   1.359       .  A
C628        N633   1.356       .  A
N629        C630   1.359       .  A
C630        C658   1.435       .  S
C630        N631   1.357       .  A
N631        C632   1.355       .  A
C632        C659   1.433       .  S
C632        N633   1.355       .  A
O634        C650   1.274       .  A
O634       Zn640   2.026       .  S
C635        O651   1.274       .  A
C635        O648   1.272       .  A
C635        C661   1.438       .  S
O636        C649   1.272       .  A
O636       Cd643   2.068       .  S
O637        C655   1.273       .  A
O637       Cd646   2.067       .  S
O638        C652   1.273       .  A
O638       Cd642   2.069       .  S
O639        C650   1.272       .  A
O639       Cd642   2.067       .  S
Zn640       O651   2.031       .  S
Zn640       O653   2.026       .  S
Zn640       O645   1.949       .  S
O641        C652   1.273       .  A
O641       Cd646   2.071       .  S
Cd642       O644   2.074       .  S
Cd642       O645   2.006       .  S
Cd643       O647   2.069       .  S
Cd643       O656   2.075       .  S
Cd643       O645   2.006       .  S
O644        C654   1.273       .  A
O645       Cd646   2.004       .  S
Cd646       O648   2.069       .  S
O647        C654   1.273       .  A
C649        O653   1.274       .  A
C649        C796   1.435       .  S
C650        C696   1.435       .  S
C652        C676   1.434       .  S
C654        C751   1.435       .  S
C655        O656   1.274       .  A
C655        C657   1.434       .  S
C657        C658   1.205       .  T
C659        C660   1.204   1_556  T
C661        C662   1.207       .  T
C663        C664   1.204   1_545  T
C665        C666   1.206       .  T
C667        C668   1.208       .  T
C669        C670   1.205   1_545  T
C671        C672   1.205       .  T
C673        C674   1.205       .  T
C675        C676   1.205       .  T
C677        C678   1.203   1_455  T
C679        C680   1.207       .  T
C681        C682   1.206       .  T
C683        C684   1.206       .  T
C685        C686   1.203   1_556  T
C687        C688   1.206       .  T
C689        C690   1.204   1_655  T
C691        C692   1.206       .  T
C693        C694   1.203       .  T
C695        C696   1.206       .  T
C697        C698   1.204       .  T
C699        C700   1.206       .  T
C701        C702   1.206       .  T
C703        C704   1.208       .  T
C705        C706   1.205       .  T
C707        C708   1.204       .  T
C709        C710   1.206       .  T
C711        C712   1.206       .  T
C713        C714   1.204       .  T
C715        C716   1.206       .  T
C717        C718   1.206       .  T
C719        C720   1.204   1_554  T
C721        C722   1.205       .  T
C723        C724   1.205       .  T
C725        C726   1.204   1_655  T
C727        C728   1.208       .  T
C729        C730   1.205   1_565  T
C731        C732   1.206       .  T
C733        C734   1.206       .  T
C735        C736   1.205       .  T
C737        C738   1.207       .  T
C739        C740   1.206       .  T
C741        C742   1.207       .  T
C743        C744   1.207       .  T
C745        C746   1.206       .  T
C747        C748   1.208       .  T
C749        C750   1.206       .  T
C751        C752   1.206       .  T
C753        C754   1.207       .  T
C755        C756   1.207       .  T
C757        C758   1.204       .  T
C759        C760   1.206       .  T
C761        C762   1.207       .  T
C763        C764   1.205   1_554  T
C765        C766   1.206       .  T
C767        C768   1.205       .  T
C769        C770   1.206       .  T
C771        C772   1.207       .  T
C773        C774   1.208       .  T
C775        C776   1.203       .  T
C777        C778   1.205       .  T
C779        C780   1.203       .  T
C781        C782   1.206       .  T
C783        C784   1.205       .  T
C785        C786   1.204       .  T
C787        C788   1.206       .  T
C789        C790   1.208       .  T
C791        C792   1.208       .  T
C793        C794   1.206       .  T
C795        C796   1.206       .  T
C797        C798   1.206       .  T
C799        C800   1.207       .  T
C801        C802   1.207       .  T
C803        C804   1.204       .  T
C805        C806   1.207       .  T
C807        C808   1.206       .  T
C809        C810   1.205       .  T
C811        C812   1.207       .  T
C813        C814   1.207       .  T
C815        C816   1.205       .  T
C817        C818   1.206       .  T
C819        C820   1.207       .  T
C821        C822   1.206       .  T
C823        C824   1.206       .  T
C825        C826   1.206       .  T
C827        C828   1.205   1_545  T
C829        C830   1.206       .  T
C831        C832   1.205       .  T
C833        C834   1.206       .  T
C835        C836   1.205       .  T
C837        C838   1.203       .  T
C839        C840   1.205       .  T
C841        C842   1.205       .  T
C843        C844   1.207       .  T
C845        C846   1.206       .  T
C847        C848   1.206       .  T
C849        C850   1.205       .  T
C851        C852   1.205       .  T
C853        C854   1.205       .  T
C855        C856   1.206       .  T
C857        C858   1.204       .  T
C859        C860   1.207       .  T
C861        C862   1.205       .  T
C863        C864   1.204       .  T
C865        C866   1.206       .  T
C867        C868   1.206       .  T
C869        C870   1.205       .  T
C871        C872   1.205       .  T
C873        C874   1.205       .  T
C875        C876   1.203       .  T
C877        C878   1.205       .  T
C879        C880   1.206       .  T
C881        C882   1.206       .  T
C883        C884   1.204   1_655  T
C885        C886   1.206       .  T
C887        C888   1.207       .  T
C889        C890   1.205       .  T
C891        C892   1.205       .  T
C893        C894   1.207       .  T
C895        C896   1.205       .  T
