geometry optimzed in LAMMPS
_audit_creation_date              2020-11-30 
_audit_creation_method            'lammps2cif' 
_symmetry_space_group_name_H-M    'P1' 
_symmetry_Int_Tables_number       1 
_symmetry_cell_setting            triclinic 
loop_ 
_symmetry_equiv_pos_as_xyz 
  x,y,z 
_cell_length_a                    31.76841206 
_cell_length_b                    26.564459164186957 
_cell_length_c                    29.03396482291182 
_cell_angle_alpha                 90.18965917052515 
_cell_angle_beta                  91.12714036172194 
_cell_angle_gamma                 91.19718190547239 
loop_ 
_atom_site_label 
_atom_site_type_symbol 
_atom_site_fract_x 
_atom_site_fract_y 
_atom_site_fract_z 
_atom_site_charge 
O1          O  0.07197462  0.79327902  0.43457102    -0.57400
C2          C  0.15966052  0.81360861  0.36859151     0.75200
O3          O  0.06144812  0.75565810  0.27268789    -0.58600
C4          C  0.03353200  0.78219645  0.43953740     0.75200
C5          C  0.04749612  0.89939502  0.32622304     0.77500
Cd6        Cd  0.07200655  0.79758114  0.35046081     1.37500
O7          O  0.13766866  0.78516878  0.39390894    -0.57400
O8          O  0.08386364  0.88265612  0.32000548    -0.56300
C9          C  0.07388365  0.71271774  0.28508531     0.77500
O10         O  0.02029646  0.86748277  0.33998065    -0.58600
O11         O  0.14057250  0.83508189  0.33588011    -0.57100
O12         O  0.01195660  0.77751638  0.40236731    -0.57100
O13         O  0.08151184  0.70812684  0.32759126    -0.56200
O14         O  0.42965769  0.82358053  0.42898515    -0.57400
C15         C  0.34017729  0.81339785  0.36509277     0.75200
O16         O  0.48490709  0.87683328  0.33464355    -0.58600
C17         C  0.46378946  0.80141281  0.43719914     0.75200
C18         C  0.42850194  0.73256991  0.27878157     0.77500
Cd19       Cd  0.42819172  0.81238034  0.34645547     1.37500
O20         O  0.36126237  0.77379428  0.36774453    -0.57400
O21         O  0.43496787  0.72497255  0.32126427    -0.56300
C22         C  0.46023109  0.90850631  0.31676572     0.77500
O23         O  0.42662840  0.77822418  0.26709232    -0.58600
O24         O  0.36044119  0.85284549  0.35394932    -0.57100
O25         O  0.48233962  0.78421684  0.40244425    -0.57100
O26         O  0.42276232  0.89325306  0.30911020    -0.56200
C27         C  0.08428253  0.50743149  0.08436673     0.86900
C28         C  0.08129371  0.55410273  0.11529562    -0.53400
C29         C  0.10919174  0.55672195  0.15127754     0.09800
C30         C  0.13949412  0.51200509  0.15364192     0.20700
C31         C  0.13191031  0.50975476  0.06979940    -0.54100
C32         C  0.16116025  0.51068573  0.10603520     0.09900
C33         C  0.08270358  0.46247086  0.11774880    -0.53600
C34         C  0.11049451  0.46464921  0.15414973     0.10500
H35         H  0.05739803  0.58236662  0.11018293     0.15000
H36         H  0.16146717  0.51501402  0.18368956     0.00700
H37         H  0.14307090  0.51176241  0.03530173     0.15300
H38         H  0.05955918  0.43194798  0.11397533     0.15100
C39         C  0.42490558  0.51760746  0.08413592     0.86900
C40         C  0.42592985  0.46974118  0.11319829    -0.53400
C41         C  0.40002463  0.46864153  0.14988765     0.09800
C42         C  0.37342743  0.51652909  0.15455699     0.20700
C43         C  0.37658257  0.52182513  0.07076001    -0.54100
C44         C  0.34939844  0.52178238  0.10778217     0.09900
C45         C  0.43156400  0.56107605  0.11864071    -0.53600
C46         C  0.40608706  0.56051752  0.15564082     0.10500
H47         H  0.44768416  0.43960139  0.10661905     0.15000
H48         H  0.35255142  0.51566701  0.18457655     0.00700
H49         H  0.36371623  0.52510531  0.03638245     0.15300
H50         H  0.45520829  0.59071881  0.11400385     0.15100
O51         O  0.08791264  0.23886501  0.43462159    -0.57400
C52         C  0.17204683  0.19567976  0.36442741     0.75200
O53         O  0.06307945  0.14752625  0.29787744    -0.58600
C54         C  0.04890688  0.24218219  0.44096803     0.75200
C55         C  0.08701602  0.30543932  0.29024394     0.77500
Cd56       Cd  0.08461277  0.21779139  0.35244387     1.37500
O57         O  0.15181132  0.21937506  0.39439874    -0.57400
O58         O  0.05266146  0.28157731  0.29696786    -0.56300
C59         C  0.05430059  0.11575948  0.32885096     0.77500
O60         O  0.11841415  0.28942158  0.31256363    -0.58600
O61         O  0.15108421  0.18079693  0.32934316    -0.57100
O62         O  0.02583573  0.23819364  0.40483783    -0.57100
O63         O  0.05593631  0.13257079  0.36957951    -0.56200
O64         O  0.37692530  0.22572189  0.39056875    -0.57400
C65         C  0.47917846  0.24821722  0.42808215     0.75200
O66         O  0.44264029  0.15020805  0.28682389    -0.58600
C67         C  0.35279658  0.19941105  0.36468372     0.75200
C68         C  0.42933829  0.30674124  0.28010290     0.77500
Cd69       Cd  0.43790725  0.22135066  0.34187697     1.37500
O70         O  0.44246713  0.22914740  0.42479954    -0.57400
O71         O  0.39968323  0.28994341  0.30421551    -0.56300
C72         C  0.46538068  0.12296631  0.31217520     0.77500
O73         O  0.46404796  0.28443698  0.28477538    -0.58600
O74         O  0.49755741  0.25637484  0.39031482    -0.57100
O75         O  0.36940933  0.18045698  0.32951251    -0.57100
O76         O  0.47959336  0.14398581  0.34855079    -0.54600
O77         O  0.93442060  0.21334414  0.62284570    -0.57400
C78         C  0.84482307  0.18869187  0.68332624     0.75200
O79         O  0.93121797  0.13339496  0.75639785    -0.58600
C80         C  0.97025170  0.23423924  0.61986921     0.75200
C81         C  0.92419862  0.29157906  0.77264072     0.77500
Cd82       Cd  0.93093459  0.20891093  0.70629863     1.37500
O83         O  0.86468915  0.22640365  0.66772819    -0.57400
O84         O  0.89537409  0.27873233  0.74433938    -0.56300
C85         C  0.95866502  0.10958813  0.73460332     0.77500
O86         O  0.95751451  0.26623138  0.77058450    -0.58600
O87         O  0.86599312  0.15833659  0.70749641    -0.57100
O88         O  0.98897876  0.24446116  0.65790871    -0.57100
O89         O  0.97647316  0.13424573  0.70308619    -0.56200
O90         O  0.65044756  0.23829734  0.67084312    -0.57400
C91         C  0.54572279  0.25552727  0.61507425     0.75200
O92         O  0.56023480  0.16921500  0.76558490    -0.58600
C93         C  0.66578928  0.20022821  0.69061564     0.75200
C94         C  0.59113852  0.31711148  0.76706268     0.77500
Cd95       Cd  0.58144886  0.23102577  0.70498049     1.37500
O96         O  0.58251411  0.23926342  0.62103598    -0.57400
O97         O  0.62169975  0.29418982  0.75055666    -0.56300
C98         C  0.54447665  0.13719973  0.73751876     0.77500
O99         O  0.55498877  0.30014782  0.75474603    -0.58600
O100        O  0.52552642  0.26303745  0.65158817    -0.57100
O101        O  0.64122836  0.17564239  0.71626599    -0.57100
O102        O  0.54159538  0.15145331  0.69610346    -0.56200
O103        O  0.56015072  0.82909585  0.63173595    -0.57400
C104        C  0.65060707  0.82596559  0.69342326     0.75200
O105        O  0.51059282  0.89068463  0.73025737    -0.58600
C106        C  0.52369785  0.80973002  0.62616814     0.75200
C107        C  0.56450302  0.73847701  0.77696353     0.77500
Cd108      Cd  0.56335869  0.82405678  0.71471513     1.37500
O109        O  0.62358037  0.80334403  0.66810504    -0.57400
O110        O  0.55982728  0.73383001  0.73401902    -0.56300
C111        C  0.53801500  0.92398284  0.74176209     0.77500
O112        O  0.56353579  0.78326663  0.79182658    -0.58600
O113        O  0.63673726  0.84948574  0.72771884    -0.57100
O114        O  0.50418765  0.79819672  0.66251764    -0.57100
O115        O  0.57565933  0.90968761  0.74386417    -0.56200
O116        O  0.91733835  0.79859409  0.62400411    -0.57400
C117        C  0.83041019  0.81312521  0.69108799     0.75200
O118        O  0.91999741  0.76106533  0.78676457    -0.58600
C119        C  0.95440215  0.78374275  0.61873903     0.75200
C120        C  0.95043066  0.89505739  0.74383888     0.77500
Cd121      Cd  0.91833832  0.79900024  0.70861176     1.37500
O122        O  0.84481277  0.76991568  0.69913148    -0.57400
O123        O  0.97497078  0.86377171  0.72588113    -0.56300
C124        C  0.91844249  0.71560497  0.77368981     0.77500
O125        O  0.91288154  0.87984933  0.74892625    -0.58600
O126        O  0.85709384  0.84882993  0.68915103    -0.57100
O127        O  0.97519229  0.77556188  0.65560527    -0.57100
O128        O  0.92075922  0.70861474  0.73073155    -0.56200
C129        C  0.58233443  0.52244359  0.96853458     0.86900
C130        C  0.57909774  0.47905184  0.93356096    -0.53400
C131        C  0.60369572  0.48428631  0.89611557     0.09800
C132        C  0.63250197  0.53171702  0.89745434     0.20700
C133        C  0.63121728  0.52413044  0.98098362    -0.54100
C134        C  0.65794342  0.52908093  0.94349022     0.09900
C135        C  0.57648199  0.57024250  0.94005998    -0.53600
C136        C  0.60227300  0.57591798  0.90369842     0.10500
H137        H  0.55759254  0.44702718  0.93735875     0.15000
H138        H  0.65190112  0.53446565  0.86640397     0.00700
H139        H  0.64459675  0.52108396  0.01510975     0.15300
H140        H  0.55228628  0.59733544  0.94741761     0.15100
C141        C  0.92209854  0.50415531  0.96946722     0.86900
C142        C  0.92805920  0.54674293  0.93436804    -0.53400
C143        C  0.90103902  0.54566201  0.89766035     0.09800
C144        C  0.86818779  0.50213524  0.89900172     0.20700
C145        C  0.87462958  0.50987855  0.98273672    -0.54100
C146        C  0.84583509  0.50803209  0.94603480     0.09900
C147        C  0.92127031  0.45536693  0.94109125    -0.53600
C148        C  0.89465505  0.45394722  0.90369579     0.10500
H149        H  0.95222925  0.57610080  0.93840391     0.15000
H150        H  0.84682226  0.50259479  0.86851134     0.00700
H151        H  0.86399777  0.51787555  0.01689716     0.15300
H152        H  0.94281537  0.42502142  0.94844282     0.15100
C153        C  0.72625390  0.49412843  0.97699347    -0.05400
C154        C  0.70668302  0.52794767  0.94627791     0.00500
C155        C  0.73434916  0.55778622  0.91831689    -0.08100
C156        C  0.77842967  0.54874190  0.91895634    -0.05400
C157        C  0.79789939  0.51487228  0.94944774     0.00500
C158        C  0.77086125  0.48792621  0.98007024    -0.08000
C159        C  0.78816756  0.45283857  0.01666307     0.62400
H160        H  0.70603195  0.47208177  0.99908537     0.13100
H161        H  0.79849583  0.57000540  0.89599206     0.13100
C162        C  0.71958780  0.60233891  0.89006767     0.62600
F163        F  0.80539156  0.48098503  0.05268594    -0.22500
F164        F  0.81851750  0.42230073  0.99878173    -0.19800
F165        F  0.75690856  0.42184671  0.03435322    -0.19500
F166        F  0.68615031  0.62505411  0.91052930    -0.19600
F167        F  0.70834422  0.58705505  0.84592014    -0.19900
F168        F  0.75129000  0.63871816  0.88688325    -0.22600
C169        C  0.93286569  0.62714778  0.79551239    -0.05400
C170        C  0.91333689  0.67260893  0.80618235     0.00500
C171        C  0.88753704  0.67476177  0.84562496    -0.08100
C172        C  0.88262647  0.63137030  0.87299407    -0.05400
C173        C  0.90272558  0.58643242  0.86267507     0.00500
C174        C  0.92870278  0.58424042  0.82364777    -0.08000
C175        C  0.95223783  0.53697214  0.81208998     0.62400
H176        H  0.95219154  0.62580389  0.76527215     0.13100
H177        H  0.86385939  0.63248556  0.90367832     0.13100
C178        C  0.86451422  0.72211672  0.85860828     0.62600
F179        F  0.97575437  0.54257151  0.77270970    -0.22500
F180        F  0.92366553  0.49780337  0.80469442    -0.19800
F181        F  0.97940819  0.52516421  0.84806775    -0.19500
F182        F  0.83960026  0.73743998  0.82185573    -0.19600
F183        F  0.89329439  0.75996821  0.87043060    -0.19900
F184        F  0.83867607  0.71440674  0.89589330    -0.22600
C185        C  0.58961737  0.60737151  0.82487395    -0.05400
C186        C  0.59713260  0.61880537  0.87146120     0.00500
C187        C  0.59381833  0.66945689  0.88669590    -0.08100
C188        C  0.58073062  0.70598362  0.85501649    -0.05400
C189        C  0.57317371  0.69499693  0.80816578     0.00500
C190        C  0.57794399  0.64440899  0.79262372    -0.08000
C191        C  0.57090667  0.62875405  0.74260244     0.62400
H192        H  0.59199813  0.56839443  0.81408783     0.13100
H193        H  0.57778538  0.74445749  0.86718011     0.13100
C194        C  0.60457225  0.68811319  0.93526662     0.62600
F195        F  0.57515152  0.57742679  0.73629534    -0.22500
F196        F  0.60023848  0.65285673  0.71535924    -0.19800
F197        F  0.53065850  0.64089782  0.72807987    -0.19500
F198        F  0.63200776  0.72914620  0.93285729    -0.19600
F199        F  0.62378182  0.65274318  0.96282735    -0.19900
F200        F  0.56814578  0.70310652  0.95620184    -0.22600
C201        C  0.72078059  0.86587761  0.70034914    -0.05400
C202        C  0.69616985  0.82463725  0.68474347     0.00500
C203        C  0.71592965  0.78214047  0.66567214    -0.08100
C204        C  0.76010438  0.78090112  0.66699813    -0.05400
C205        C  0.78471482  0.82093877  0.68528510     0.00500
C206        C  0.76489224  0.86520906  0.70061716    -0.08000
C207        C  0.78961626  0.91084280  0.71904675     0.62400
H208        H  0.70494892  0.89848070  0.71351433     0.13100
H209        H  0.77592044  0.74800001  0.65444268     0.13100
C210        C  0.69097262  0.73753863  0.64551839     0.62600
F211        F  0.76351981  0.94832079  0.73419651    -0.22500
F212        F  0.81409901  0.93106512  0.68456331    -0.19800
F213        F  0.81503361  0.89692966  0.75586595    -0.19500
F214        F  0.66681411  0.75315004  0.60826769    -0.19600
F215        F  0.66514141  0.71690032  0.67859797    -0.19900
F216        F  0.71688476  0.69998922  0.63017853    -0.22600
C217        C  0.50481782  0.05813760  0.72027926    -0.05400
C218        C  0.53297214  0.08437449  0.75014033     0.00500
C219        C  0.55494541  0.05705883  0.78476233    -0.08100
C220        C  0.55239341  0.00400839  0.78357946    -0.05400
C221        C  0.52835897  0.97778249  0.74979748     0.00500
C222        C  0.50211114  0.00517612  0.71932870    -0.08000
C223        C  0.47399372  0.97897193  0.68337532     0.62400
H224        H  0.48714161  0.07951461  0.69507987     0.13100
H225        H  0.57144857  0.98234784  0.80732608     0.13100
C226        C  0.58290379  0.08296119  0.82112732     0.62600
F227        F  0.45129095  0.01289251  0.65726306    -0.22500
F228        F  0.44552315  0.94724035  0.70487120    -0.19800
F229        F  0.49824622  0.95138667  0.65378934    -0.19500
F230        F  0.55960497  0.11697821  0.84558906    -0.19600
F231        F  0.61611801  0.10788723  0.80052416    -0.19900
F232        F  0.59960145  0.04903668  0.85227711    -0.22600
C233        C  0.56185589  0.39195910  0.80489528    -0.05400
C234        C  0.59694673  0.36172551  0.79831259     0.00500
C235        C  0.63575697  0.37536016  0.82122422    -0.08100
C236        C  0.63701406  0.41763405  0.85090991    -0.05400
C237        C  0.60148419  0.44672143  0.85806318     0.00500
C238        C  0.56357629  0.43483432  0.83327927    -0.08000
C239        C  0.52410350  0.46607281  0.83418376     0.62400
H240        H  0.53249041  0.38260676  0.78684221     0.13100
H241        H  0.66557118  0.42749964  0.87018871     0.13100
C242        C  0.67558289  0.34530922  0.81584468     0.62600
F243        F  0.51226880  0.47797054  0.78946715    -0.22500
F244        F  0.52936274  0.51074758  0.85811975    -0.19800
F245        F  0.49191546  0.43817661  0.85381476    -0.19500
F246        F  0.68853334  0.34754435  0.77068286    -0.19600
F247        F  0.66815259  0.29570730  0.82820805    -0.19900
F248        F  0.70836780  0.36396099  0.84345316    -0.22600
C249        C  0.99054704  0.97160127  0.72197308    -0.05400
C250        C  0.96309652  0.94847199  0.75317778     0.00500
C251        C  0.94160039  0.97920335  0.78463197    -0.08100
C252        C  0.94314669  0.03172082  0.77883689    -0.05400
C253        C  0.96651899  0.05500929  0.74382238     0.00500
C254        C  0.99250847  0.02436707  0.71622762    -0.08000
C255        C  0.01996720  0.04595310  0.67850062     0.62400
H256        H  0.00737848  0.94770808  0.69865298     0.13100
H257        H  0.92431954  0.05463639  0.80113897     0.13100
C258        C  0.91533619  0.95857678  0.82364967     0.62600
F259        F  0.04506370  0.00978022  0.65923465    -0.22500
F260        F  0.04637269  0.08349447  0.69640710    -0.19800
F261        F  0.99482137  0.06520987  0.64362081    -0.19500
F262        F  0.92429014  0.90907803  0.83381604    -0.19600
F263        F  0.87310115  0.96210218  0.81194410    -0.19900
F264        F  0.92345961  0.98662112  0.86322516    -0.22600
C265        C  0.87624293  0.34317664  0.81942180    -0.05400
C266        C  0.91779473  0.33354503  0.80610985     0.00500
C267        C  0.95094865  0.36514382  0.82343562    -0.08100
C268        C  0.94128217  0.40433165  0.85397442    -0.05400
C269        C  0.89983414  0.41382611  0.86771678     0.00500
C270        C  0.86657538  0.38250164  0.85013856    -0.08000
C271        C  0.82136834  0.38872514  0.86476078     0.62400
H272        H  0.85106819  0.31906055  0.80571956     0.13100
H273        H  0.96650356  0.42835788  0.86763901     0.13100
C274        C  0.99621972  0.35891727  0.80889762     0.62600
F275        F  0.80536392  0.43240348  0.84648752    -0.22500
F276        F  0.81955309  0.39050239  0.91218238    -0.19800
F277        F  0.79570725  0.34902689  0.84967851    -0.19500
F278        F  0.99827966  0.36058255  0.76137156    -0.19600
F279        F  0.01111470  0.31342027  0.82459771    -0.19900
F280        F  0.02260607  0.39667238  0.82660140    -0.22600
C281        C  0.77746281  0.15522089  0.71158188    -0.05400
C282        C  0.79866741  0.18275419  0.67765979     0.00500
C283        C  0.77509814  0.20786564  0.64310728    -0.08100
C284        C  0.73130372  0.20970690  0.64736958    -0.05400
C285        C  0.71045740  0.18713211  0.68446864     0.00500
C286        C  0.73359253  0.15682303  0.71584147    -0.08000
C287        C  0.71312589  0.12817585  0.75502669     0.62400
H288        H  0.79587801  0.13492808  0.73689170     0.13100
H289        H  0.71315606  0.23091393  0.62245567     0.13100
C290        C  0.79551785  0.23263550  0.60184576     0.62600
F291        F  0.74190018  0.10036495  0.78013766    -0.22500
F292        F  0.68281886  0.09487330  0.73742802    -0.19800
F293        F  0.69503696  0.16165140  0.78498373    -0.19500
F294        F  0.82363968  0.19996280  0.58268514    -0.19600
F295        F  0.81628140  0.27675809  0.61509281    -0.19900
F296        F  0.76609275  0.24449247  0.56799465    -0.22600
C297        C  0.55611372  0.26026113  0.53058221    -0.05400
C298        C  0.52797078  0.26283608  0.56746908     0.00500
C299        C  0.48432016  0.26794070  0.55727210    -0.08100
C300        C  0.47051628  0.26553164  0.51093884    -0.05400
C301        C  0.49835093  0.25898804  0.47442797     0.00500
C302        C  0.54223463  0.25849394  0.48417433    -0.08000
C303        C  0.57434633  0.25421390  0.44632459     0.62400
H304        H  0.58947891  0.25803235  0.53843819     0.13100
H305        H  0.43716218  0.26747796  0.50283501     0.13100
C306        C  0.45193344  0.27496600  0.59447671     0.62600
F307        F  0.61522443  0.25381939  0.46374441    -0.22500
F308        F  0.57120644  0.29492493  0.41696689    -0.19800
F309        F  0.56725595  0.21001123  0.42179378    -0.19500
F310        F  0.46197478  0.31798394  0.61968349    -0.19600
F311        F  0.45108057  0.23358992  0.62324818    -0.19900
F312        F  0.41168422  0.28037126  0.57620170    -0.22600
C313        C  0.03387088  0.24327366  0.57212068    -0.05400
C314        C  0.98983142  0.24374770  0.57433483     0.00500
C315        C  0.96590198  0.25044754  0.53299853    -0.08100
C316        C  0.98689194  0.25225135  0.49075328    -0.05400
C317        C  0.03078353  0.24778379  0.48799946     0.00500
C318        C  0.05502145  0.24504160  0.52985394    -0.08000
C319        C  0.10282004  0.24237257  0.53076681     0.62400
H320        H  0.05169261  0.23900952  0.60398723     0.13100
H321        H  0.96860582  0.25538362  0.45908033     0.13100
C322        C  0.91833908  0.25548162  0.53286840     0.62600
F323        F  0.11940266  0.24299652  0.57524231    -0.22500
F324        F  0.11989212  0.28341709  0.50801237    -0.19800
F325        F  0.11510551  0.19823336  0.51002141    -0.19500
F326        F  0.90719623  0.29117516  0.56499146    -0.19600
F327        F  0.89958957  0.20959359  0.54308951    -0.19900
F328        F  0.90265354  0.27043170  0.49035806    -0.22600
C329        C  0.28524822  0.15618622  0.34639145    -0.05400
C330        C  0.30711957  0.19293003  0.37286279     0.00500
C331        C  0.28420862  0.22554989  0.40157514    -0.08100
C332        C  0.24006193  0.22234789  0.39963416    -0.05400
C333        C  0.21818418  0.18917614  0.36943265     0.00500
C334        C  0.24112178  0.15392236  0.34360025    -0.08000
C335        C  0.21989702  0.11493176  0.31207788     0.62400
H336        H  0.30312893  0.13071011  0.32558111     0.13100
H337        H  0.22217553  0.24826549  0.41993387     0.13100
C338        C  0.30540104  0.26549034  0.43237989     0.62600
F339        F  0.24797067  0.07967216  0.29673510    -0.22500
F340        F  0.20289187  0.13847767  0.27381559    -0.19800
F341        F  0.18860902  0.08933035  0.33545604    -0.19500
F342        F  0.32732948  0.29986397  0.40578460    -0.19600
F343        F  0.33262341  0.24298846  0.46346126    -0.19900
F344        F  0.27659216  0.29202587  0.45752806    -0.22600
C345        C  0.50323577  0.51507975  0.97943243    -0.05400
C346        C  0.54357886  0.51832263  0.00181321     0.00500
C347        C  0.54348665  0.52036619  0.05075758    -0.08100
C348        C  0.50434358  0.51833209  0.07377052    -0.05400
C349        C  0.46399282  0.51723712  0.05124604     0.00500
C350        C  0.46411695  0.51412226  0.00236290    -0.08000
C351        C  0.42411570  0.50900625  0.97333093     0.62400
H352        H  0.50255555  0.51441967  0.94221727     0.13100
H353        H  0.50492360  0.51829999  0.11104628     0.13100
C354        C  0.58353497  0.52607283  0.07960350     0.62600
F355        F  0.43220588  0.49981679  0.92739234    -0.22500
F356        F  0.40221064  0.55333127  0.97541600    -0.19800
F357        F  0.39990815  0.46884649  0.98874913    -0.19500
F358        F  0.60519399  0.56935550  0.06682998    -0.19600
F359        F  0.60791904  0.48411645  0.07391883    -0.19900
F360        F  0.57561503  0.53036128  0.12617744    -0.22600
C361        C  0.44547897  0.42285689  0.20491724    -0.05400
C362        C  0.40503874  0.42856619  0.18533411     0.00500
C363        C  0.37284705  0.39324155  0.19605140    -0.08100
C364        C  0.38208658  0.35447472  0.22760536    -0.05400
C365        C  0.42254618  0.34935137  0.24776934     0.00500
C366        C  0.45465840  0.38486224  0.23688428    -0.08000
C367        C  0.49824351  0.38366306  0.25928595     0.62400
H368        H  0.47048541  0.44809024  0.19398697     0.13100
H369        H  0.35778717  0.32701436  0.23603480     0.13100
C370        C  0.32995266  0.39449654  0.17215268     0.62600
F371        F  0.52206442  0.42630648  0.24914782    -0.22500
F372        F  0.51946007  0.34224300  0.24364977    -0.19800
F373        F  0.49489607  0.38127882  0.30668573    -0.19500
F374        F  0.33476474  0.39469750  0.12490420    -0.19600
F375        F  0.30904686  0.43715175  0.18518708    -0.19900
F376        F  0.30511509  0.35297066  0.18312402    -0.22600
C377        C  0.00144587  0.50142793  0.97992993    -0.05400
C378        C  0.96221624  0.50388754  0.00258216     0.00500
C379        C  0.96433597  0.50402488  0.05161547    -0.08100
C380        C  0.00447749  0.50458817  0.07436092    -0.05400
C381        C  0.04383712  0.50479773  0.05157589     0.00500
C382        C  0.04154073  0.50218276  0.00253763    -0.08000
C383        C  0.08012528  0.50037029  0.97280768     0.62400
H384        H  0.00028325  0.49934894  0.94270241     0.13100
H385        H  0.00554354  0.50552684  0.11162817     0.13100
C386        C  0.92543904  0.50305707  0.08096883     0.62600
F387        F  0.06994099  0.49483910  0.92642918    -0.22500
F388        F  0.10411846  0.45957242  0.98518619    -0.19800
F389        F  0.10293037  0.54502105  0.97760390    -0.19500
F390        F  0.89941304  0.46284340  0.06809451    -0.19600
F391        F  0.90482283  0.54809551  0.07622214    -0.19900
F392        F  0.93512841  0.49731073  0.12734187    -0.22600
C393        C  0.13173828  0.35558647  0.23715478    -0.05400
C394        C  0.09201892  0.34850934  0.25726810     0.00500
C395        C  0.05969978  0.38273621  0.24592510    -0.08100
C396        C  0.06810681  0.42152475  0.21397571    -0.05400
C397        C  0.10731504  0.42725117  0.19262255     0.00500
C398        C  0.13992801  0.39389070  0.20472365    -0.08000
C399        C  0.18247315  0.39663271  0.18188933     0.62400
H400        H  0.15636845  0.32963271  0.24615847     0.13100
H401        H  0.04347711  0.44727710  0.20430127     0.13100
C402        C  0.01658719  0.37889411  0.26735574     0.62600
F403        F  0.20828906  0.35797685  0.19586237    -0.22500
F404        F  0.20296727  0.44153186  0.19285430    -0.19800
F405        F  0.17688514  0.39295085  0.13476378    -0.19500
F406        F  0.02078635  0.37766235  0.31484645    -0.19600
F407        F  0.99583246  0.33560650  0.25191649    -0.19900
F408        F  0.99190877  0.41953082  0.25588544    -0.22600
C409        C  0.23106641  0.55274811  0.12581824    -0.05400
C410        C  0.20933134  0.51397692  0.10132908     0.00500
C411        C  0.23465136  0.48041045  0.07527476    -0.08100
C412        C  0.27947839  0.48579064  0.07708294    -0.05400
C413        C  0.30103701  0.52297420  0.10353986     0.00500
C414        C  0.27574501  0.55893541  0.12616375    -0.08000
C415        C  0.29519304  0.60618475  0.14770062     0.62400
H416        H  0.21243644  0.57911039  0.14477526     0.13100
H417        H  0.29817058  0.45919911  0.05833566     0.13100
C418        C  0.21770067  0.43714125  0.04555383     0.62600
F419        F  0.26508240  0.64109083  0.15841076    -0.22500
F420        F  0.32230055  0.62854987  0.11685914    -0.19800
F421        F  0.31666834  0.59462134  0.18785955    -0.19500
F422        F  0.22663309  0.44719232  0.00001334    -0.19600
F423        F  0.17504005  0.42837656  0.04887700    -0.19900
F424        F  0.23752894  0.39329834  0.05833494    -0.22600
C425        C  0.45075156  0.80329779  0.52065595    -0.05400
C426        C  0.47992943  0.79673522  0.48535716     0.00500
C427        C  0.52278248  0.78865326  0.49729756    -0.08100
C428        C  0.53508965  0.79157089  0.54405069    -0.05400
C429        C  0.50622386  0.80110228  0.57900616     0.00500
C430        C  0.46295411  0.80510892  0.56740216    -0.08000
C431        C  0.42981642  0.81260272  0.60366343     0.62400
H432        H  0.41787597  0.80766701  0.51124416     0.13100
H433        H  0.56790622  0.78710556  0.55376218     0.13100
C434        C  0.55575658  0.77836238  0.46138517     0.62600
F435        F  0.39004246  0.81835481  0.58427553    -0.22500
F436        F  0.43954343  0.85529299  0.62945737    -0.19800
F437        F  0.42822474  0.77104392  0.63218860    -0.19500
F438        F  0.55825793  0.81821244  0.43093871    -0.19600
F439        F  0.54516609  0.73452241  0.43763603    -0.19900
F440        F  0.59538059  0.77227182  0.48104535    -0.22600
C441        C  0.44861761  0.98653853  0.27333796    -0.05400
C442        C  0.47230936  0.96177657  0.30732051     0.00500
C443        C  0.50047839  0.99036525  0.33606055    -0.08100
C444        C  0.50038735  0.04326877  0.33265878    -0.05400
C445        C  0.47232501  0.06838922  0.30288916     0.00500
C446        C  0.44751681  0.03934890  0.27072341    -0.08000
C447        C  0.41774109  0.06283137  0.23562963     0.62400
H448        H  0.42819936  0.96389539  0.25085435     0.13100
H449        H  0.52019291  0.06558001  0.35600398     0.13100
C450        C  0.52817955  0.96592681  0.37256040     0.62600
F451        F  0.39958084  0.02723678  0.20600325    -0.22500
F452        F  0.43958744  0.09730439  0.20910971    -0.19800
F453        F  0.38546490  0.08636230  0.25798139    -0.19500
F454        F  0.55414270  0.93159460  0.35209060    -0.19600
F455        F  0.50332121  0.94165520  0.40456970    -0.19900
F456        F  0.55362638  0.00087634  0.39589809    -0.22600
C457        C  0.42749834  0.64084897  0.26344850    -0.05400
C458        C  0.42215260  0.68965975  0.24586199     0.00500
C459        C  0.40900151  0.69514751  0.19903607    -0.08100
C460        C  0.40342504  0.65160735  0.17174222    -0.05400
C461        C  0.40874394  0.60298648  0.18942112     0.00500
C462        C  0.42131024  0.59741930  0.23614537    -0.08000
C463        C  0.43170780  0.54666387  0.25644071     0.62400
H464        H  0.43745510  0.63678499  0.29908093     0.13100
H465        H  0.39554138  0.65518077  0.13548356     0.13100
C466        C  0.40061343  0.74604670  0.17727475     0.62600
F467        F  0.44368053  0.55001646  0.30249105    -0.22500
F468        F  0.46482978  0.52707336  0.23275034    -0.19800
F469        F  0.39712981  0.51447209  0.25331093    -0.19500
F470        F  0.43736899  0.77487748  0.17730697    -0.19600
F471        F  0.37004709  0.77059262  0.20150951    -0.19900
F472        F  0.38623712  0.74151454  0.13206929    -0.22600
C473        C  0.01726771  0.77673300  0.57017803    -0.05400
C474        C  0.97321613  0.77795505  0.57232160     0.00500
C475        C  0.94908458  0.77447134  0.53058477    -0.08100
C476        C  0.97025371  0.77459924  0.48835831    -0.05400
C477        C  0.01442767  0.77687440  0.48610034     0.00500
C478        C  0.03848931  0.77552574  0.52807699    -0.08000
C479        C  0.08629123  0.77273592  0.52945911     0.62400
H480        H  0.03534169  0.77818336  0.60215564     0.13100
H481        H  0.95205052  0.77437551  0.45645772     0.13100
C482        C  0.90125603  0.77059931  0.52986867     0.62600
F483        F  0.10194011  0.76472455  0.57364913    -0.22500
F484        F  0.10388404  0.81743241  0.51391395    -0.19800
F485        F  0.09897426  0.73314126  0.50232853    -0.19500
F486        F  0.88476678  0.81633211  0.54232983    -0.19600
F487        F  0.88789464  0.73356772  0.55998003    -0.19900
F488        F  0.88523149  0.75801418  0.48654862    -0.22600
C489        C  0.06286659  0.98016367  0.28662109    -0.05400
C490        C  0.03939982  0.95416008  0.31989037     0.00500
C491        C  0.01461970  0.98220463  0.35052986    -0.08100
C492        C  0.01847646  0.03527438  0.35040031    -0.05400
C493        C  0.04473348  0.06122096  0.31958089     0.00500
C494        C  0.06533315  0.03324103  0.28519293    -0.08000
C495        C  0.09151916  0.05877749  0.24847612     0.62400
H496        H  0.08083299  0.95827995  0.26268660     0.13100
H497        H  0.00200044  0.05704547  0.37570270     0.13100
C498        C  0.98560051  0.95648647  0.38453123     0.62600
F499        F  0.10852137  0.02442184  0.21848269    -0.22500
F500        F  0.12435589  0.08606263  0.26889288    -0.19800
F501        F  0.06651574  0.09065681  0.22281193    -0.19500
F502        F  0.00866472  0.92694065  0.41450552    -0.19600
F503        F  0.95618902  0.92671964  0.36078319    -0.19900
F504        F  0.96393949  0.99087189  0.41045151    -0.22600
C505        C  0.09925045  0.68491007  0.20889628    -0.05400
C506        C  0.08203929  0.67145506  0.25146044     0.00500
C507        C  0.07580143  0.61952081  0.26156023    -0.08100
C508        C  0.08780932  0.58316890  0.22896072    -0.05400
C509        C  0.10561329  0.59683265  0.18683781     0.00500
C510        C  0.11186930  0.64865541  0.17674082    -0.08000
C511        C  0.13182253  0.66791565  0.13287412     0.62400
H512        H  0.10422285  0.72452697  0.20113861     0.13100
H513        H  0.08218914  0.54344504  0.23555510     0.13100
C514        C  0.05495015  0.60235525  0.30557258     0.62600
F515        F  0.16351353  0.70262069  0.14405061    -0.22500
F516        F  0.10160212  0.69132997  0.10610091    -0.19800
F517        F  0.14949056  0.63037750  0.10702453    -0.19500
F518        F  0.01852877  0.62891685  0.31217175    -0.19600
F519        F  0.08227060  0.61028761  0.34264311    -0.19900
F520        F  0.04402893  0.55162546  0.30408283    -0.22600
C521        C  0.22657408  0.77513172  0.39005914    -0.05400
C522        C  0.20568943  0.81804140  0.37468066     0.00500
C523        C  0.22924049  0.86162078  0.36238362    -0.08100
C524        C  0.27320983  0.85862217  0.36145106    -0.05400
C525        C  0.29418845  0.81407704  0.37281253     0.00500
C526        C  0.27057252  0.77207905  0.38950729    -0.08000
C527        C  0.29075920  0.72370790  0.40587767     0.62400
H528        H  0.20786900  0.74263631  0.40019900     0.13100
H529        H  0.29141541  0.89100468  0.35014258     0.13100
C530        C  0.20857053  0.91136401  0.35108938     0.62600
F531        F  0.26176462  0.69087759  0.42534559    -0.22500
F532        F  0.32146514  0.73461064  0.43907726    -0.19800
F533        F  0.30830499  0.69915576  0.36905531    -0.19500
F534        F  0.18034489  0.92310339  0.38498492    -0.19600
F535        F  0.18769434  0.90826540  0.30893221    -0.19900
F536        F  0.23786616  0.95059274  0.34882389    -0.22600
loop_ 
_geom_bond_atom_site_label_1 
_geom_bond_atom_site_label_2 
_geom_bond_distance 
_geom_bond_site_symmetry_2 
_ccdc_geom_bond_type 
O1            C4   1.261       .  A
O1           Cd6   2.445       .  S
C2           O11   1.261       .  A
C2            O7   1.265       .  A
C2          C522   1.472       .  S
O3            C9   1.266       .  A
O3           Cd6   2.528       .  S
C4           O12   1.271       .  A
C4          C477   1.499       .  S
C5           O10   1.269       .  A
C5            O8   1.263       .  A
C5          C490   1.494       .  S
Cd6          O13   2.491       .  S
Cd6          O12   2.504       .  S
Cd6          O11   2.422       .  S
Cd6           O7   2.445       .  S
Cd6          O10   2.520       .  S
Cd6           O8   2.454       .  S
C9           O13   1.260       .  A
C9          C506   1.495       .  S
O14          C17   1.264       .  A
O14         Cd19   2.413       .  S
C15          O24   1.265       .  A
C15          O20   1.261       .  A
C15         C525   1.483       .  S
O16          C22   1.267       .  A
O16         Cd19   2.489       .  S
C17          O25   1.267       .  A
C17         C426   1.486       .  S
C18          O23   1.263       .  A
C18          O21   1.264       .  A
C18         C458   1.493       .  S
Cd19         O26   2.418       .  S
Cd19         O25   2.472       .  S
Cd19         O24   2.439       .  S
Cd19         O20   2.433       .  S
Cd19         O23   2.473       .  S
Cd19         O21   2.447       .  S
C22          O26   1.265       .  A
C22         C442   1.486       .  S
C27          C28   1.534       .  S
C27          C33   1.541       .  S
C27          C31   1.579       .  S
C27         C381   1.584       .  S
C28          H35   1.087       .  S
C28          C29   1.357       .  D
C29          C30   1.545       .  S
C29         C509   1.489       .  S
C30          C34   1.544       .  S
C30          C32   1.557       .  S
C30          H36   1.108       .  S
C31          H37   1.070       .  S
C31          C32   1.390       .  D
C32         C410   1.540       .  S
C33          H38   1.087       .  S
C33          C34   1.364       .  D
C34         C397   1.501       .  S
C39          C40   1.529       .  S
C39          C45   1.535       .  S
C39          C43   1.582       .  S
C39         C349   1.581       .  S
C40          H47   1.087       .  S
C40          C41   1.359       .  D
C41          C42   1.549       .  S
C41         C362   1.492       .  S
C42          C46   1.546       .  S
C42          C44   1.553       .  S
C42          H48   1.106       .  S
C43          H49   1.076       .  S
C43          C44   1.392       .  D
C44         C413   1.540       .  S
C45          H50   1.087       .  S
C45          C46   1.358       .  D
C46         C461   1.492       .  S
O51          C54   1.261       .  A
O51         Cd56   2.449       .  S
C52          O61   1.264       .  A
C52          O57   1.266       .  A
C52         C333   1.484       .  S
O53          C59   1.266       .  A
O53         Cd56   2.519       .  S
C54          O62   1.271       .  A
C54         C317   1.500       .  S
C55          O60   1.261       .  A
C55          O58   1.269       .  A
C55         C394   1.502       .  S
Cd56         O63   2.478       .  S
Cd56         O62   2.499       .  S
Cd56         O61   2.452       .  S
Cd56         O57   2.436       .  S
Cd56         O60   2.468       .  S
Cd56         O58   2.554       .  S
C59          O63   1.262       .  A
C59         C493   1.497       .  S
O64          C67   1.262       .  A
O64         Cd69   2.425       .  S
C65          O74   1.270       .  A
C65          O70   1.264       .  A
C65         C301   1.490       .  S
O66          C72   1.262       .  A
O66         Cd69   2.480       .  S
C67          O75   1.266       .  A
C67         C330   1.482       .  S
C68          O73   1.268       .  A
C68          O71   1.260       .  A
C68         C365   1.489       .  S
Cd69         O76   2.474       .  S
Cd69         O75   2.431       .  S
Cd69         O74   2.499       .  S
Cd69         O70   2.417       .  S
Cd69         O73   2.502       .  S
Cd69         O71   2.458       .  S
C72          O76   1.264       .  A
C72         C445   1.495       .  S
O77          C80   1.261       .  A
O77         Cd82   2.431       .  S
C78          O87   1.266       .  A
C78          O83   1.263       .  A
C78         C282   1.477       .  S
O79          C85   1.266       .  A
O79         Cd82   2.482       .  S
C80          O88   1.270       .  A
C80         C314   1.492       .  S
C81          O86   1.269       .  A
C81          O84   1.259       .  A
C81         C266   1.496       .  S
Cd82         O89   2.482       .  S
Cd82         O88   2.511       .  S
Cd82         O87   2.439       .  S
Cd82         O83   2.419       .  S
Cd82         O86   2.526       .  S
Cd82         O84   2.462       .  S
C85          O89   1.263       .  A
C85         C253   1.500       .  S
O90          C93   1.266       .  A
O90         Cd95   2.428       .  S
C91         O100   1.267       .  A
C91          O96   1.263       .  A
C91         C298   1.497       .  S
O92          C98   1.265       .  A
O92         Cd95   2.503       .  S
C93         O101   1.263       .  A
C93         C285   1.482       .  S
C94          O99   1.269       .  A
C94          O97   1.259       .  A
C94         C234   1.496       .  S
Cd95        O102   2.451       .  S
Cd95        O101   2.444       .  S
Cd95        O100   2.499       .  S
Cd95         O96   2.449       .  S
Cd95         O99   2.502       .  S
Cd95         O97   2.456       .  S
C98         O102   1.264       .  A
C98         C218   1.491       .  S
O103        C106   1.265       .  A
O103       Cd108   2.414       .  S
C104        O113   1.265       .  A
C104        O109   1.261       .  A
C104        C202   1.475       .  S
O105        C111   1.268       .  A
O105       Cd108   2.509       .  S
C106        O114   1.270       .  A
C106        C429   1.483       .  S
C107        O112   1.265       .  A
C107        O110   1.258       .  A
C107        C189   1.497       .  S
Cd108       O115   2.446       .  S
Cd108       O114   2.476       .  S
Cd108       O113   2.435       .  S
Cd108       O109   2.436       .  S
Cd108       O112   2.490       .  S
Cd108       O110   2.464       .  S
C111        O115   1.263       .  A
C111        C221   1.487       .  S
O116        C119   1.262       .  A
O116       Cd121   2.456       .  S
C117        O126   1.261       .  A
C117        O122   1.265       .  A
C117        C205   1.477       .  S
O118        C124   1.264       .  A
O118       Cd121   2.486       .  S
C119        O127   1.268       .  A
C119        C474   1.494       .  S
C120        O125   1.263       .  A
C120        O123   1.269       .  A
C120        C250   1.489       .  S
Cd121       O128   2.490       .  S
Cd121       O127   2.484       .  S
Cd121       O126   2.434       .  S
Cd121       O122   2.455       .  S
Cd121       O125   2.453       .  S
Cd121       O123   2.506       .  S
C124        O128   1.264       .  A
C124        C170   1.492       .  S
C129        C130   1.534       .  S
C129        C135   1.530       .  S
C129        C133   1.587       .  S
C129        C346   1.582   1_556  S
C130        H137   1.087       .  S
C130        C131   1.357       .  D
C131        C132   1.542       .  S
C131        C237   1.486       .  S
C132        C136   1.545       .  S
C132        C134   1.551       .  S
C132        H138   1.104       .  S
C133        H139   1.074   1_556  S
C133        C134   1.399       .  D
C134        C154   1.550       .  S
C135        H140   1.088       .  S
C135        C136   1.356       .  D
C136        C186   1.486       .  S
C141        C142   1.536       .  S
C141        C147   1.533       .  S
C141        C145   1.574       .  S
C141        C378   1.581   1_556  S
C142        H149   1.087       .  S
C142        C143   1.355       .  D
C143        C144   1.542       .  S
C143        C173   1.488       .  S
C144        C148   1.551       .  S
C144        C146   1.560       .  S
C144        H150   1.105       .  S
C145        H151   1.076   1_556  S
C145        C146   1.391       .  D
C146        C157   1.542       .  S
C147        H152   1.087       .  S
C147        C148   1.363       .  D
C148        C269   1.504       .  S
C153        C154   1.413       .  A
C153        C158   1.431       .  A
C153        H160   1.082       .  S
C154        C155   1.436       .  A
C155        C162   1.519       .  S
C155        C156   1.426       .  A
C156        C157   1.408       .  A
C156        H161   1.084       .  S
C157        C158   1.432       .  A
C158        C159   1.518   1_556  S
C159        F163   1.381       .  S
C159        F164   1.381   1_554  S
C159        F165   1.384       .  S
C162        F166   1.376       .  S
C162        F167   1.381       .  S
C162        F168   1.386       .  S
C169        C170   1.406       .  A
C169        C174   1.410       .  A
C169        H176   1.082       .  S
C170        C171   1.423       .  A
C171        C178   1.518       .  S
C171        C172   1.410       .  A
C172        C173   1.400       .  A
C172        H177   1.082       .  S
C173        C174   1.417       .  A
C174        C175   1.515       .  S
C175        F179   1.385       .  S
C175        F180   1.380       .  S
C175        F181   1.383       .  S
C178        F182   1.383       .  S
C178        F183   1.383       .  S
C178        F184   1.385       .  S
C185        C186   1.400       .  A
C185        C190   1.411       .  A
C185        H192   1.085       .  S
C186        C187   1.422       .  A
C187        C194   1.523       .  S
C187        C188   1.403       .  A
C188        C189   1.405       .  A
C188        H193   1.087       .  S
C189        C190   1.428       .  A
C190        C191   1.520       .  S
C191        F195   1.385       .  S
C191        F196   1.383       .  S
C191        F197   1.383       .  S
C194        F198   1.384       .  S
C194        F199   1.380       .  S
C194        F200   1.383       .  S
C201        C202   1.401       .  A
C201        C206   1.402       .  A
C201        H208   1.083       .  S
C202        C203   1.419       .  A
C203        C210   1.521       .  S
C203        C204   1.404       .  A
C204        C205   1.403       .  A
C204        H209   1.083       .  S
C205        C206   1.420       .  A
C206        C207   1.521       .  S
C207        F211   1.385       .  S
C207        F212   1.383       .  S
C207        F213   1.383       .  S
C210        F214   1.384       .  S
C210        F215   1.383       .  S
C210        F216   1.384       .  S
C217        C218   1.406       .  A
C217        C222   1.408       .  A
C217        H224   1.083       .  S
C218        C219   1.422       .  A
C219        C226   1.520       .  S
C219        C220   1.410       .  A
C220        C221   1.405   1_545  A
C220        H225   1.083   1_545  S
C221        C222   1.417   1_565  A
C222        C223   1.518   1_545  S
C223        F227   1.385   1_565  S
C223        F228   1.383       .  S
C223        F229   1.383       .  S
C226        F230   1.383       .  S
C226        F231   1.381       .  S
C226        F232   1.385       .  S
C233        C234   1.403       .  A
C233        C238   1.403       .  A
C233        H240   1.085       .  S
C234        C235   1.429       .  A
C235        C242   1.520       .  S
C235        C236   1.413       .  A
C236        C237   1.400       .  A
C236        H241   1.084       .  S
C237        C238   1.420       .  A
C238        C239   1.519       .  S
C239        F243   1.384       .  S
C239        F244   1.379       .  S
C239        F245   1.383       .  S
C242        F246   1.383       .  S
C242        F247   1.384       .  S
C242        F248   1.384       .  S
C249        C250   1.404       .  A
C249        C254   1.412   1_565  A
C249        H256   1.083   1_655  S
C250        C251   1.418       .  A
C251        C258   1.517       .  S
C251        C252   1.406   1_565  A
C252        C253   1.408       .  A
C252        H257   1.084       .  S
C253        C254   1.427       .  A
C254        C255   1.520   1_655  S
C255        F259   1.385       .  S
C255        F260   1.383       .  S
C255        F261   1.383   1_455  S
C258        F262   1.383       .  S
C258        F263   1.383       .  S
C258        F264   1.384       .  S
C265        C266   1.411       .  A
C265        C270   1.414       .  A
C265        H272   1.083       .  S
C266        C267   1.416       .  A
C267        C274   1.519       .  S
C267        C268   1.408       .  A
C268        C269   1.411       .  A
C268        H273   1.082       .  S
C269        C270   1.417       .  A
C270        C271   1.518       .  S
C271        F275   1.380       .  S
C271        F276   1.380       .  S
C271        F277   1.384       .  S
C274        F278   1.384       .  S
C274        F279   1.383   1_655  S
C274        F280   1.385   1_655  S
C281        C282   1.403       .  A
C281        C286   1.403       .  A
C281        H288   1.082       .  S
C282        C283   1.417       .  A
C283        C290   1.519       .  S
C283        C284   1.401       .  A
C284        C285   1.405       .  A
C284        H289   1.083       .  S
C285        C286   1.422       .  A
C286        C287   1.520       .  S
C287        F291   1.385       .  S
C287        F292   1.383       .  S
C287        F293   1.383       .  S
C290        F294   1.382       .  S
C290        F295   1.383       .  S
C290        F296   1.385       .  S
C297        C298   1.411       .  A
C297        C302   1.410       .  A
C297        H304   1.083       .  S
C298        C299   1.422       .  A
C299        C306   1.520       .  S
C299        C300   1.408       .  A
C300        C301   1.406       .  A
C300        H305   1.083       .  S
C301        C302   1.417       .  A
C302        C303   1.520       .  S
C303        F307   1.385       .  S
C303        F308   1.383       .  S
C303        F309   1.383       .  S
C306        F310   1.383       .  S
C306        F311   1.383       .  S
C306        F312   1.385       .  S
C313        C314   1.402   1_455  A
C313        C318   1.411       .  A
C313        H320   1.083       .  S
C314        C315   1.422       .  A
C315        C322   1.520       .  S
C315        C316   1.408       .  A
C316        C317   1.406   1_655  A
C316        H321   1.082       .  S
C317        C318   1.429       .  A
C318        C319   1.521       .  S
C319        F323   1.385       .  S
C319        F324   1.383       .  S
C319        F325   1.383       .  S
C322        F326   1.384       .  S
C322        F327   1.381       .  S
C322        F328   1.384       .  S
C329        C330   1.404       .  A
C329        C334   1.403       .  A
C329        H336   1.083       .  S
C330        C331   1.422       .  A
C331        C338   1.523       .  S
C331        C332   1.403       .  A
C332        C333   1.405       .  A
C332        H337   1.082       .  S
C333        C334   1.420       .  A
C334        C335   1.518       .  S
C335        F339   1.385       .  S
C335        F340   1.383       .  S
C335        F341   1.383       .  S
C338        F342   1.384       .  S
C338        F343   1.383       .  S
C338        F344   1.385       .  S
C345        C346   1.426   1_556  A
C345        C350   1.421   1_556  A
C345        H352   1.080       .  S
C346        C347   1.422       .  A
C347        C354   1.514       .  S
C347        C348   1.423       .  A
C348        C349   1.427       .  A
C348        H353   1.082       .  S
C349        C350   1.421       .  A
C350        C351   1.515   1_554  S
C351        F355   1.385       .  S
C351        F356   1.382       .  S
C351        F357   1.383       .  S
C354        F358   1.383       .  S
C354        F359   1.382       .  S
C354        F360   1.385       .  S
C361        C362   1.406       .  A
C361        C366   1.405       .  A
C361        H368   1.082       .  S
C362        C363   1.413       .  A
C363        C370   1.518       .  S
C363        C364   1.412       .  A
C364        C365   1.411       .  A
C364        H369   1.083       .  S
C365        C366   1.416       .  A
C366        C367   1.519       .  S
C367        F371   1.385       .  S
C367        F372   1.382       .  S
C367        F373   1.384       .  S
C370        F374   1.383       .  S
C370        F375   1.381       .  S
C370        F376   1.384       .  S
C377        C378   1.423   1_456  A
C377        C382   1.421   1_556  A
C377        H384   1.082       .  S
C378        C379   1.424       .  A
C379        C386   1.515       .  S
C379        C380   1.424   1_655  A
C380        C381   1.426       .  A
C380        H385   1.082       .  S
C381        C382   1.426       .  A
C382        C383   1.515   1_554  S
C383        F387   1.385       .  S
C383        F388   1.382       .  S
C383        F389   1.382       .  S
C386        F390   1.383       .  S
C386        F391   1.382       .  S
C386        F392   1.385       .  S
C393        C394   1.410       .  A
C393        C398   1.412       .  A
C393        H400   1.082       .  S
C394        C395   1.420       .  A
C395        C402   1.517       .  S
C395        C396   1.414       .  A
C396        C397   1.408       .  A
C396        H401   1.084       .  S
C397        C398   1.417       .  A
C398        C399   1.518       .  S
C399        F403   1.384       .  S
C399        F404   1.380       .  S
C399        F405   1.379       .  S
C402        F406   1.383       .  S
C402        F407   1.382   1_455  S
C402        F408   1.385   1_455  S
C409        C410   1.410       .  A
C409        C414   1.425       .  A
C409        H416   1.082       .  S
C410        C411   1.437       .  A
C411        C418   1.518       .  S
C411        C412   1.428       .  A
C412        C413   1.407       .  A
C412        H417   1.084       .  S
C413        C414   1.428       .  A
C414        C415   1.515       .  S
C415        F419   1.385       .  S
C415        F420   1.382       .  S
C415        F421   1.378       .  S
C418        F422   1.383       .  S
C418        F423   1.376       .  S
C418        F424   1.384       .  S
C425        C426   1.408       .  A
C425        C430   1.405       .  A
C425        H432   1.083       .  S
C426        C427   1.419       .  A
C427        C434   1.521       .  S
C427        C428   1.407       .  A
C428        C429   1.407       .  A
C428        H433   1.084       .  S
C429        C430   1.415       .  A
C430        C431   1.519       .  S
C431        F435   1.385       .  S
C431        F436   1.383       .  S
C431        F437   1.383       .  S
C434        F438   1.383       .  S
C434        F439   1.384       .  S
C434        F440   1.385       .  S
C441        C442   1.403       .  A
C441        C446   1.406   1_565  A
C441        H448   1.083       .  S
C442        C443   1.418       .  A
C443        C450   1.520       .  S
C443        C444   1.409   1_565  A
C444        C445   1.409       .  A
C444        H449   1.082       .  S
C445        C446   1.425       .  A
C446        C447   1.521       .  S
C447        F451   1.385       .  S
C447        F452   1.383       .  S
C447        F453   1.383       .  S
C450        F454   1.383       .  S
C450        F455   1.384       .  S
C450        F456   1.385   1_565  S
C457        C458   1.407       .  A
C457        C462   1.406       .  A
C457        H464   1.082       .  S
C458        C459   1.423       .  A
C459        C466   1.521       .  S
C459        C460   1.406       .  A
C460        C461   1.404       .  A
C460        H465   1.082       .  S
C461        C462   1.416       .  A
C462        C463   1.513       .  S
C463        F467   1.385       .  S
C463        F468   1.378       .  S
C463        F469   1.379       .  S
C466        F470   1.383       .  S
C466        F471   1.383       .  S
C466        F472   1.385       .  S
C473        C474   1.403   1_455  A
C473        C478   1.408       .  A
C473        H480   1.082       .  S
C474        C475   1.423       .  A
C475        C482   1.520       .  S
C475        C476   1.410       .  A
C476        C477   1.406   1_655  A
C476        H481   1.082       .  S
C477        C478   1.427       .  A
C478        C479   1.522       .  S
C479        F483   1.386       .  S
C479        F484   1.383       .  S
C479        F485   1.383       .  S
C482        F486   1.383       .  S
C482        F487   1.384       .  S
C482        F488   1.385       .  S
C489        C490   1.406       .  A
C489        C494   1.411   1_565  A
C489        H496   1.083       .  S
C490        C491   1.419       .  A
C491        C498   1.518   1_455  S
C491        C492   1.413   1_565  A
C492        C493   1.407       .  A
C492        H497   1.083       .  S
C493        C494   1.421       .  A
C494        C495   1.518       .  S
C495        F499   1.384       .  S
C495        F500   1.381       .  S
C495        F501   1.383       .  S
C498        F502   1.383   1_655  S
C498        F503   1.383       .  S
C498        F504   1.384       .  S
C505        C506   1.405       .  A
C505        C510   1.409       .  A
C505        H512   1.086       .  S
C506        C507   1.422       .  A
C507        C514   1.518       .  S
C507        C508   1.413       .  A
C508        C509   1.403       .  A
C508        H513   1.085       .  S
C509        C510   1.419       .  A
C510        C511   1.519       .  S
C511        F515   1.384       .  S
C511        F516   1.383       .  S
C511        F517   1.381       .  S
C514        F518   1.384       .  S
C514        F519   1.382       .  S
C514        F520   1.385       .  S
C521        C522   1.401       .  A
C521        C526   1.402       .  A
C521        H528   1.083       .  S
C522        C523   1.416       .  A
C523        C530   1.522       .  S
C523        C524   1.402       .  A
C524        C525   1.407       .  A
C524        H529   1.082       .  S
C525        C526   1.423       .  A
C526        C527   1.521       .  S
C527        F531   1.385       .  S
C527        F532   1.383       .  S
C527        F533   1.383       .  S
C530        F534   1.384       .  S
C530        F535   1.382       .  S
C530        F536   1.385       .  S
