geometry optimzed in LAMMPS
_audit_creation_date              2020-11-30 
_audit_creation_method            'lammps2cif' 
_symmetry_space_group_name_H-M    'P1' 
_symmetry_Int_Tables_number       1 
_symmetry_cell_setting            triclinic 
loop_ 
_symmetry_equiv_pos_as_xyz 
  x,y,z 
_cell_length_a                    44.81328881 
_cell_length_b                    44.39370140885644 
_cell_length_c                    36.56186438764494 
_cell_angle_alpha                 89.81603533397832 
_cell_angle_beta                  90.07304103253901 
_cell_angle_gamma                 119.67117262394854 
loop_ 
_atom_site_label 
_atom_site_type_symbol 
_atom_site_fract_x 
_atom_site_fract_y 
_atom_site_fract_z 
_atom_site_charge 
C1          C  0.32964528  0.66669107  0.21634770     0.45900
H2          H  0.32866422  0.66662515  0.18600903    -0.03100
C3          C  0.33158130  0.66631079  0.28727973     0.45900
H4          H  0.33216463  0.66581180  0.31761142    -0.03100
C5          C  0.34872784  0.70397076  0.23295890    -0.16800
C6          C  0.29319101  0.64789443  0.23407257    -0.16600
C7          C  0.34852539  0.64782403  0.23154010    -0.17000
C8          C  0.34959341  0.70376312  0.27094178    -0.17000
C9          C  0.29431537  0.64792116  0.27192555    -0.16500
C10         C  0.34946387  0.64751299  0.26941475    -0.16800
N11         N  0.10596770  0.29765074  0.74716032    -0.36200
N12         N  0.15162798  0.30645614  0.68672462    -0.56700
N13         N  0.18993408  0.29110722  0.74177552    -0.36200
N14         N  0.14274210  0.28004555  0.80180951    -0.56700
C15         C  0.08910572  0.30097783  0.71830110     0.27400
C16         C  0.08424999  0.28681022  0.77580749     0.27400
C17         C  0.20665667  0.29218035  0.71077806     0.27400
C18         C  0.20333665  0.28111989  0.76911388     0.27400
C19         C  0.13706376  0.32492322  0.67432604     0.36000
C20         C  0.18290743  0.32061034  0.67083235     0.36000
C21         C  0.12415676  0.28902579  0.82374743     0.36000
C22         C  0.17128423  0.28714831  0.82101034     0.36000
C23         C  0.05557708  0.29074662  0.72823033    -0.21500
C24         C  0.05254639  0.28189938  0.76472701    -0.21500
C25         C  0.22983166  0.28075647  0.71813531    -0.21500
C26         C  0.22796618  0.27411695  0.75512881    -0.21500
C27         C  0.15833245  0.34959261  0.64913377    -0.22500
C28         C  0.18737686  0.34685115  0.64688444    -0.22500
C29         C  0.13958105  0.29927610  0.85774023    -0.22500
C30         C  0.16949014  0.29810835  0.85600702    -0.22500
C31         C  0.10578505  0.32117899  0.68731180    -0.17900
C32         C  0.09539385  0.29151632  0.81235247    -0.17900
C33         C  0.20047170  0.28729827  0.80632387    -0.17900
C34         C  0.20859467  0.31220918  0.67986675    -0.17900
H35         H  0.03646340  0.29270275  0.71184724     0.15000
H36         H  0.03066898  0.27581765  0.78201340     0.15000
H37         H  0.24868003  0.28087218  0.69955028     0.15000
H38         H  0.24490851  0.26795214  0.77053193     0.15000
H39         H  0.15423533  0.36877695  0.63519710     0.13300
H40         H  0.20992283  0.36364546  0.63091783     0.13300
H41         H  0.13114312  0.30848178  0.88071276     0.13300
H42         H  0.18858829  0.30622046  0.87743989     0.13300
H43         H  0.13274595  0.31039763  0.74956194     0.26600
H44         H  0.17648396  0.30452043  0.74570702     0.26600
N45         N  0.10963759  0.80776006  0.75608185    -0.36200
N46         N  0.14203172  0.85726616  0.69666156    -0.56700
N47         N  0.19027644  0.90139736  0.75391846    -0.36200
N48         N  0.15572892  0.85309144  0.81310502    -0.56700
C49         C  0.08677363  0.79258544  0.72876134     0.27400
C50         C  0.09507269  0.78977322  0.78693462     0.27400
C51         C  0.20127321  0.92167311  0.72386047     0.27400
C52         C  0.20765304  0.92112893  0.78288995     0.27400
C53         C  0.12391485  0.82759280  0.67749616     0.36000
C54         C  0.16998902  0.87764273  0.67613222     0.36000
C55         C  0.14291140  0.82205280  0.83013821     0.36000
C56         C  0.18596071  0.87428989  0.82970488     0.36000
C57         C  0.05669654  0.76532098  0.74270608    -0.21500
C58         C  0.06207010  0.76339055  0.77950824    -0.21500
C59         C  0.22508968  0.95521340  0.73393086    -0.21500
C60         C  0.22894147  0.95495060  0.77130538    -0.21500
C61         C  0.13914688  0.83018633  0.64376372    -0.22500
C62         C  0.16840320  0.86189755  0.64295321    -0.22500
C63         C  0.16384479  0.82413378  0.85902726    -0.22500
C64         C  0.19104279  0.85725115  0.85887566    -0.22500
C65         C  0.09572228  0.79705195  0.69141617    -0.17900
C66         C  0.11378184  0.79132157  0.81844962    -0.17900
C67         C  0.21046472  0.90768756  0.81702484    -0.17900
C68         C  0.19881725  0.90839248  0.68844603    -0.17900
H69         H  0.03450431  0.74684917  0.72732334     0.15000
H70         H  0.04483341  0.74324721  0.79809740     0.15000
H71         H  0.24045363  0.97672344  0.71579527     0.15000
H72         H  0.24763609  0.97634632  0.78755711     0.15000
H73         H  0.13129870  0.81052484  0.62283688     0.13300
H74         H  0.18731933  0.87150712  0.62124877     0.13300
H75         H  0.16069104  0.80361472  0.87741030     0.13300
H76         H  0.21295858  0.86687230  0.87697836     0.13300
H77         H  0.13587034  0.82351945  0.75245223     0.26600
H78         H  0.17829798  0.87461372  0.75320478     0.26600
N79         N  0.80369118  0.70594392  0.22195193    -0.36200
N80         N  0.84623002  0.69466151  0.27474784    -0.56700
N81         N  0.89677603  0.70409881  0.22096679    -0.36200
N82         N  0.85552128  0.71764776  0.16814165    -0.56700
C83         C  0.78063762  0.68703722  0.24819787     0.27400
C84         C  0.78581069  0.70026183  0.19044859     0.27400
C85         C  0.90199102  0.68525741  0.24684217     0.27400
C86         C  0.90660417  0.69699361  0.18871546     0.27400
C87         C  0.82175968  0.69357170  0.29694659     0.36000
C88         C  0.86971095  0.69320098  0.29666983     0.36000
C89         C  0.83496933  0.72508192  0.14751198     0.36000
C90         C  0.88275089  0.72414401  0.14705645     0.36000
C91         C  0.74779154  0.67041628  0.23355947    -0.21500
C92         C  0.75100536  0.67886115  0.19725023    -0.21500
C93         C  0.91630712  0.66699834  0.23111262    -0.21500
C94         C  0.91907993  0.67423251  0.19448776    -0.21500
C95         C  0.83058081  0.69323750  0.33323313    -0.22500
C96         C  0.86110105  0.69303710  0.33305560    -0.22500
C97         C  0.84997271  0.73794269  0.11376380    -0.22500
C98         C  0.88039127  0.73747295  0.11351363    -0.22500
C99         C  0.78838528  0.68355601  0.28484976    -0.17900
C100        C  0.79997624  0.71224950  0.15530864    -0.17900
C101        C  0.90414918  0.70991282  0.15404795    -0.17900
C102        C  0.89296319  0.68302085  0.28408306    -0.17900
H103        H  0.72393450  0.65304268  0.24724482     0.15000
H104        H  0.73001274  0.66902143  0.17788622     0.15000
H105        H  0.92296885  0.64928248  0.24434553     0.15000
H106        H  0.92823407  0.66290194  0.17437360     0.15000
H107        H  0.81508756  0.69027517  0.35711065     0.13300
H108        H  0.87384378  0.68990911  0.35674246     0.13300
H109        H  0.83874901  0.74411928  0.09072317     0.13300
H110        H  0.89720636  0.74314444  0.09017413     0.13300
H111        H  0.82993807  0.72250803  0.22559577     0.26600
H112        H  0.88832650  0.72187217  0.22519364     0.26600
O113        O  0.06789407  0.55377357  0.95280147    -0.78100
C114        C  0.08001329  0.53632557  0.06603910     0.83000
O115        O  0.99589286  0.42905009  0.96238228    -0.79200
O116        O  0.97244062  0.46126176  0.08177197    -0.80700
O117        O  0.97016123  0.54947412  0.00168506    -0.80500
O118        O  0.02088365  0.55579185  0.93626650    -0.79100
Zn119      Zn  0.04987226  0.51254791  0.98778326     1.55700
O120        O  0.98312170  0.54227495  0.05885992    -0.80500
Cd121      Cd  0.98250278  0.52074717  0.96846916     1.59700
Cd122      Cd  0.96862903  0.44857512  0.98786146     1.59600
O123        O  0.93954393  0.49008452  0.93531631    -0.80500
O124        O  0.00176001  0.49775627  0.99977919    -1.91000
Cd125      Cd  0.00170519  0.50782609  0.05360237     1.59900
O126        O  0.92608800  0.43751920  0.95380647    -0.80400
O127        O  0.05089889  0.53057447  0.07815875    -0.79100
C128        C  0.02749093  0.44083062  0.95485843     0.83400
C129        C  0.05304331  0.56714677  0.93451602     0.83100
O130        O  0.08289300  0.52940323  0.03268825    -0.78000
C131        C  0.97245843  0.55642614  0.03561152     0.83900
O132        O  0.05054019  0.47170534  0.96321135    -0.78100
C133        C  0.91963285  0.45735271  0.93398817     0.84000
C134        C  0.95564256  0.43009833  0.07015017     0.84400
O135        O  0.95197386  0.42282371  0.03619081    -0.80600
O136        O  0.08028356  0.54634300  0.46820729    -0.78100
C137        C  0.02591067  0.58574200  0.53898439     0.83000
O138        O  0.00840105  0.45991630  0.56236823    -0.79200
O139        O  0.92267701  0.48894092  0.54237051    -0.80700
O140        O  0.96957222  0.51319464  0.41465311    -0.80500
O141        O  0.04850366  0.52048033  0.41948887    -0.79100
Zn142      Zn  0.04490491  0.53267693  0.51055824     1.55700
O143        O  0.94794206  0.52916418  0.46095977    -0.80500
Cd144      Cd  0.99818268  0.49396983  0.44139164     1.59700
Cd145      Cd  0.97496301  0.45784195  0.52391775     1.59600
O146        O  0.97987435  0.44101222  0.43285993    -0.80500
O147        O  0.99700703  0.50174723  0.49558326    -1.91000
Cd148      Cd  0.96527800  0.51938398  0.50819846     1.59900
O149        O  0.96780227  0.41934994  0.48945859    -0.80400
O150        O  0.99412136  0.56631651  0.53215677    -0.79100
C151        C  0.04023164  0.48012346  0.56776097     0.83400
C152        C  0.07795990  0.53972366  0.43394326     0.83100
O153        O  0.04811688  0.57649470  0.53178606    -0.78000
C154        C  0.95201594  0.52658828  0.42694073     0.83900
O155        O  0.05760128  0.50821053  0.54970745    -0.78100
C156        C  0.97034162  0.41572354  0.45537111     0.84000
C157        C  0.91217082  0.45911700  0.55671097     0.84400
O158        O  0.92878878  0.44313915  0.55131334    -0.80600
N159        N  0.81080623  0.10169143  0.25337064    -0.36200
N160        N  0.85351770  0.14133966  0.31476470    -0.56700
N161        N  0.90427214  0.19424324  0.26706833    -0.36200
N162        N  0.86213410  0.15360372  0.20577228    -0.56700
C163        C  0.78703506  0.09244871  0.28026446     0.27400
C164        C  0.79369098  0.09530548  0.22126630     0.27400
C165        C  0.91221524  0.21060778  0.29972997     0.27400
C166        C  0.91341342  0.21915419  0.24108840     0.27400
C167        C  0.82686367  0.11562340  0.33294560     0.36000
C168        C  0.87751028  0.15987515  0.34010735     0.36000
C169        C  0.84299425  0.13015201  0.18013781     0.36000
C170        C  0.88761795  0.18063056  0.18776078     0.36000
C171        C  0.75456299  0.07886647  0.26499754    -0.21500
C172        C  0.75870426  0.08045471  0.22795589    -0.21500
C173        C  0.92831087  0.24624986  0.29414160    -0.21500
C174        C  0.92885583  0.25156313  0.25731046    -0.21500
C175        C  0.83444162  0.11682705  0.36981081    -0.22500
C176        C  0.86682623  0.14461695  0.37430747    -0.22500
C177        C  0.85756148  0.14151853  0.14584073    -0.22500
C178        C  0.88551910  0.17389148  0.15064361    -0.22500
C179        C  0.79363271  0.09685081  0.31823390    -0.17900
C180        C  0.80863069  0.10432133  0.18600340    -0.17900
C181        C  0.90708933  0.21368682  0.20319982    -0.17900
C182        C  0.90330707  0.19456625  0.33461882    -0.17900
H183        H  0.73026847  0.06974904  0.27884991     0.15000
H184        H  0.73816664  0.07310770  0.20834399     0.15000
H185        H  0.93720898  0.26656808  0.31441935     0.15000
H186        H  0.93860222  0.27657705  0.24420442     0.15000
H187        H  0.81736427  0.10101550  0.39147530     0.13300
H188        H  0.87944146  0.15468136  0.40027567     0.13300
H189        H  0.84701586  0.12943287  0.11975723     0.13300
H190        H  0.90103680  0.19150769  0.12914816     0.13300
H191        H  0.83702391  0.11092659  0.25651367     0.26600
H192        H  0.89372452  0.16770276  0.26294556     0.26600
N193        N  0.28289417  0.09584075  0.26563820    -0.36200
N194        N  0.30580788  0.15478383  0.21516983    -0.56700
N195        N  0.28645843  0.19402299  0.26652975    -0.36200
N196        N  0.27644804  0.14231764  0.35027492    -0.56700
C197        C  0.29953851  0.08697233  0.24090894     0.27400
C198        C  0.28132278  0.07907352  0.29718405     0.27400
C199        C  0.30495918  0.21929307  0.24198703     0.27400
C200        C  0.28310688  0.20962228  0.29681575     0.27400
C201        C  0.31257613  0.13369959  0.19438381     0.36000
C202        C  0.31592637  0.18410588  0.19550921     0.36000
C203        C  0.26116813  0.11036817  0.33534524     0.36000
C204        C  0.26016704  0.15824317  0.33566654     0.36000
C205        C  0.30547071  0.06159192  0.25583722    -0.21500
C206        C  0.29446069  0.05701704  0.29149081    -0.21500
C207        C  0.31104929  0.25096864  0.25577017    -0.21500
C208        C  0.29748728  0.24491198  0.29035720    -0.21500
C209        C  0.32573563  0.14922791  0.16082075    -0.22500
C210        C  0.32791664  0.18107465  0.16156578    -0.22500
C211        C  0.23308640  0.10484025  0.31448476    -0.22500
C212        C  0.23261456  0.13545826  0.31447764    -0.22500
C213        C  0.31384962  0.10428952  0.20743050    -0.17900
C214        C  0.27795585  0.09098555  0.33188471    -0.17900
C215        C  0.27617749  0.19429877  0.33201613    -0.17900
C216        C  0.31970376  0.21555872  0.20926534    -0.17900
H217        H  0.31913638  0.04982977  0.24345182     0.15000
H218        H  0.29848770  0.04153448  0.31170364     0.15000
H219        H  0.32588193  0.27630616  0.24333565     0.15000
H220        H  0.30043431  0.26473971  0.30946742     0.15000
H221        H  0.33488215  0.13952456  0.13893648     0.13300
H222        H  0.33881906  0.20056396  0.14026372     0.13300
H223        H  0.21743120  0.08260000  0.29744873     0.13300
H224        H  0.21663686  0.14165199  0.29737396     0.13300
H225        H  0.27670539  0.11535036  0.26289531     0.26600
H226        H  0.28000995  0.16818908  0.26473089     0.26600
N227        N  0.68600395  0.79517404  0.73643671    -0.36200
N228        N  0.68260963  0.83578911  0.79739036    -0.56700
N229        N  0.69156062  0.89253090  0.75074913    -0.36200
N230        N  0.69594147  0.85205284  0.68970117    -0.56700
C231        C  0.66783096  0.76997532  0.76131217     0.27400
C232        C  0.67851396  0.77983115  0.70319339     0.27400
C233        C  0.67882924  0.89908882  0.78140712     0.27400
C234        C  0.68222451  0.90569528  0.72232567     0.27400
C235        C  0.67917133  0.80765973  0.81531087     0.36000
C236        C  0.68533333  0.85858357  0.82327506     0.36000
C237        C  0.70109310  0.83281098  0.66469710     0.36000
C238        C  0.69964895  0.88033636  0.67188693     0.36000
C239        C  0.65026144  0.73817001  0.74396277    -0.21500
C240        C  0.65699591  0.74432749  0.70738581    -0.21500
C241        C  0.66377300  0.91898645  0.77257197    -0.21500
C242        C  0.66576654  0.92298972  0.73535553    -0.21500
C243        C  0.68124302  0.81313412  0.85270855    -0.22500
C244        C  0.68550297  0.84561959  0.85777561    -0.22500
C245        C  0.71011489  0.84996050  0.63131153    -0.22500
C246        C  0.70861361  0.87984707  0.63575546    -0.22500
C247        C  0.66537854  0.77485613  0.79908134    -0.17900
C248        C  0.68868177  0.79701444  0.66895252    -0.17900
C249        C  0.68595244  0.90069264  0.68480373    -0.17900
C250        C  0.67784160  0.88536403  0.81668978    -0.17900
H251        H  0.63334791  0.71315684  0.75617484     0.15000
H252        H  0.64576480  0.72484524  0.68626287     0.15000
H253        H  0.65096833  0.92819309  0.79070667     0.15000
H254        H  0.65506320  0.93607918  0.71964459     0.15000
H255        H  0.67720439  0.79452982  0.87404877     0.13300
H256        H  0.68515745  0.85693227  0.88384785     0.13300
H257        H  0.71367573  0.84016182  0.60557435     0.13300
H258        H  0.71096332  0.89771237  0.61424713     0.13300
H259        H  0.70301116  0.82120678  0.74181908     0.26600
H260        H  0.70558933  0.87962802  0.74933844     0.26600
O261        O  0.42687395  0.95025154  0.54435283    -0.78100
C262        C  0.45014559  0.92353630  0.43365512     0.83000
O263        O  0.54738497  0.99683132  0.54662486    -0.79200
O264        O  0.54295682  0.02798982  0.42183840    -0.80700
O265        O  0.45699859  0.05142487  0.47511924    -0.80500
O266        O  0.43403248  0.00364346  0.54890855    -0.79100
Zn267      Zn  0.46685951  0.95617379  0.51189253     1.55700
O268        O  0.46630198  0.03122239  0.42288516    -0.80500
Cd269      Cd  0.47491802  0.03466539  0.51703024     1.59700
Cd270      Cd  0.53999319  0.03065090  0.51623990     1.59600
O271        O  0.50755440  0.07751301  0.54981532    -0.80500
O272        O  0.49260869  0.00520913  0.49602737    -1.91000
Cd273      Cd  0.49190486  0.00479573  0.44060955     1.59900
O274        O  0.55539676  0.07499107  0.54880743    -0.80400
O275        O  0.46570995  0.95367231  0.41885427    -0.79100
C276        C  0.53002044  0.96453847  0.55319012     0.83400
C277        C  0.41783225  0.97150459  0.55671782     0.83100
O278        O  0.44819512  0.92072645  0.46859457    -0.78000
C279        C  0.45430154  0.04779012  0.44054864     0.83900
O280        O  0.49940787  0.94555270  0.54141943    -0.78100
C281        C  0.53867189  0.08954790  0.55980588     0.84000
C282        C  0.57149704  0.04122187  0.43921048     0.84400
O283        O  0.57289611  0.04382656  0.47384729    -0.80600
O284        O  0.46021932  0.53838340  0.46271172    -0.78100
C285        C  0.43099428  0.46504554  0.55507234     0.83000
O286        O  0.56657464  0.56333564  0.52565237    -0.79200
O287        O  0.51199688  0.43690843  0.54432998    -0.80700
O288        O  0.46761702  0.44058982  0.41952226    -0.80500
O289        O  0.47271216  0.51914308  0.41245411    -0.79100
Zn290      Zn  0.48146105  0.52401691  0.50536351     1.55700
O291        O  0.45807749  0.41309679  0.47325772    -0.80500
Cd292      Cd  0.49721779  0.49267452  0.43421075     1.59700
Cd293      Cd  0.55055812  0.51528231  0.50483802     1.59600
O294        O  0.54636992  0.51460177  0.41176185    -0.80500
O295        O  0.50187373  0.49600914  0.48917295    -1.91000
Cd296      Cd  0.48068574  0.44954162  0.51277160     1.59900
O297        O  0.58072186  0.52442394  0.45982681    -0.80400
O298        O  0.44299121  0.44533284  0.54674080    -0.79100
C299        C  0.55188248  0.58095039  0.53238424     0.83400
C300        C  0.45916915  0.53533348  0.42785700     0.83100
O301        O  0.44312652  0.49565011  0.54200086    -0.78000
C302        C  0.45445546  0.41285641  0.43874414     0.83900
O303        O  0.51963863  0.56880608  0.52766227    -0.78100
C304        C  0.57618310  0.52541304  0.42556194     0.84000
C305        C  0.54310061  0.45514997  0.55456445     0.84400
O306        O  0.56121491  0.48617720  0.54286563    -0.80600
O307        O  0.45923957  0.92467833  0.03841678    -0.78100
C308        C  0.42820868  0.98272728  0.96005652     0.83000
O309        O  0.55519704  0.99612280  0.95265932    -0.79200
O310        O  0.52333623  0.08534445  0.96359794    -0.80700
O311        O  0.49294889  0.03462254  0.09189975    -0.80500
O312        O  0.48653946  0.95539721  0.08721628    -0.79100
Zn313      Zn  0.47759018  0.96112272  0.99549028     1.55700
O314        O  0.48027194  0.05879383  0.04509584    -0.80500
Cd315      Cd  0.51316002  0.00672906  0.06591574     1.59700
Cd316      Cd  0.55343855  0.03215659  0.98512122     1.59600
O317        O  0.56500049  0.02624960  0.07742053    -0.80500
O318        O  0.50823560  0.00945026  0.01118261    -1.91000
Cd319      Cd  0.49171443  0.04229660  0.99772347     1.59900
O320        O  0.59089503  0.04285139  0.02287987    -0.80400
O321        O  0.44636672  0.01404726  0.97041029    -0.79100
C322        C  0.53581777  0.96362117  0.94895679     0.83400
C323        C  0.46592293  0.92613460  0.07269015     0.83100
O324        O  0.43707310  0.95989691  0.96707748    -0.78000
C325        C  0.48066077  0.05312246  0.07925500     0.83900
O326        O  0.50601680  0.94708318  0.96348627    -0.78100
C327        C  0.59170049  0.03813036  0.05714493     0.84000
C328        C  0.55177644  0.09418410  0.94740298     0.84400
O329        O  0.56676359  0.07644536  0.95255851    -0.80600
O330        O  0.41657161  0.46647112  0.96435529    -0.78100
C331        C  0.45161692  0.53526672  0.06443227     0.83000
O332        O  0.52874643  0.55000763  0.93381615    -0.79200
O333        O  0.55453893  0.54318165  0.06054533    -0.80700
O334        O  0.47163343  0.42051367  0.03829402    -0.80500
O335        O  0.43099466  0.42493686  0.96475995    -0.79100
Zn336      Zn  0.45794049  0.50892437  0.98716131     1.55700
O337        O  0.48780674  0.46086999  0.08198084    -0.80500
Cd338      Cd  0.47810627  0.44593360  0.98943394     1.59700
Cd339      Cd  0.53549472  0.51965205  0.97073802     1.59600
O340        O  0.50997864  0.43599865  0.95425502    -0.80500
O341        O  0.49265039  0.49551744  0.00045086    -1.91000
Cd342      Cd  0.50255029  0.50693763  0.05391343     1.59900
O343        O  0.55165410  0.48916188  0.94216146    -0.80400
O344        O  0.47447050  0.52887131  0.07724992    -0.79100
C345        C  0.50687830  0.56015048  0.93016871     0.83400
C346        C  0.41021689  0.43571390  0.95666643     0.83100
O347        O  0.44234198  0.52838062  0.03091194    -0.78000
C348        C  0.47546589  0.42938101  0.07187194     0.83900
O349        O  0.47935317  0.54777167  0.94912291    -0.78100
C350        C  0.53825449  0.45646795  0.93819953     0.84000
C351        C  0.57901469  0.55949278  0.03772581     0.84400
O352        O  0.57505358  0.55300065  0.00361164    -0.80600
C353        C  0.66887658  0.33726519  0.71445069     0.45900
H354        H  0.66831255  0.33689009  0.68410225    -0.03100
C355        C  0.67016532  0.33804797  0.78527346     0.45900
H356        H  0.67074836  0.33855437  0.81559735    -0.03100
C357        C  0.65082474  0.30035587  0.73135090    -0.16800
C358        C  0.70580443  0.35544672  0.73024413    -0.16600
C359        C  0.65105648  0.35643470  0.73119577    -0.17000
C360        C  0.65202974  0.30070375  0.76924259    -0.17000
C361        C  0.70653192  0.35657291  0.76798375    -0.16500
C362        C  0.65114913  0.35624979  0.76903921    -0.16800
C363        C  0.60706718  0.44745747  0.88360974    -0.27200
C364        C  0.58784147  0.41509130  0.86623646     0.02400
C365        C  0.55205410  0.39631973  0.87342218     0.30500
C366        C  0.53657871  0.40955925  0.89729363    -0.19000
C367        C  0.55572869  0.44217161  0.91409985    -0.28400
C368        C  0.59145575  0.46101538  0.90688730     0.44500
C369        C  0.60503419  0.40083865  0.84127207     0.05700
O370        O  0.53157139  0.36511492  0.85669656    -0.56900
H371        H  0.50914002  0.39448638  0.90191614     0.18700
O372        O  0.61165921  0.49272774  0.92275880    -0.63600
H373        H  0.63458554  0.46228553  0.87965023     0.17100
C374        C  0.62930564  0.42137112  0.81412967     0.29400
C375        C  0.64376139  0.40675787  0.79050684    -0.24500
C376        C  0.63499315  0.37169603  0.79344725    -0.23800
C377        C  0.61145096  0.35146738  0.82094427     0.40800
C378        C  0.59682794  0.36589355  0.84429527    -0.26300
O379        O  0.63810198  0.45544269  0.80940735    -0.58100
H380        H  0.66210662  0.42301448  0.76992838     0.16400
O381        O  0.60131530  0.31692468  0.82422393    -0.59600
H382        H  0.57898765  0.34947335  0.86513639     0.14900
H383        H  0.61936757  0.48764549  0.94625668     0.46800
H384        H  0.66193351  0.46906838  0.81877165     0.42100
H385        H  0.61348246  0.31515152  0.84608367     0.45600
H386        H  0.52730087  0.37106359  0.83179219     0.37100
C387        C  0.64471279  0.23847607  0.84651199    -0.27200
C388        C  0.61106324  0.21071648  0.84234911     0.02400
C389        C  0.59139321  0.21195056  0.81272770     0.30500
C390        C  0.60476288  0.24091612  0.78904019    -0.19000
C391        C  0.63815207  0.26914196  0.79378814    -0.28400
C392        C  0.65817150  0.26739880  0.82279263     0.44500
C393        C  0.59640371  0.18113655  0.86945646     0.05700
O394        O  0.55899918  0.18481637  0.80654865    -0.56900
H395        H  0.58877025  0.24143170  0.76709471     0.18700
O396        O  0.69154454  0.29326122  0.82731947    -0.63600
H397        H  0.66054880  0.23800846  0.86867248     0.17100
C398        C  0.61138801  0.16005609  0.87529722     0.29400
C399        C  0.59698079  0.13243503  0.90076938    -0.24500
C400        C  0.56747546  0.12502308  0.92147300    -0.23800
C401        C  0.55314526  0.14692224  0.91614920     0.40800
C402        C  0.56726875  0.17414068  0.89022373    -0.26300
O403        O  0.63998216  0.16593130  0.85593327    -0.58100
H404        H  0.60890618  0.11651034  0.90401369     0.16400
O405        O  0.52516453  0.14203654  0.93600835    -0.59600
H406        H  0.55557647  0.19026058  0.88667896     0.14900
H407        H  0.69166118  0.30547601  0.85003332     0.46800
H408        H  0.63118050  0.15428506  0.83207989     0.42100
H409        H  0.53473607  0.15850599  0.95671973     0.45600
H410        H  0.56246014  0.16758428  0.79273730     0.37100
C411        C  0.63837754  0.40663712  0.65281462    -0.27200
C412        C  0.60477615  0.40041342  0.65868020     0.02400
C413        C  0.58678117  0.38051561  0.68962159     0.30100
C414        C  0.60203583  0.36686884  0.71333604    -0.19000
C415        C  0.63557654  0.37289582  0.70722157    -0.28400
C416        C  0.65376198  0.39340420  0.67668773     0.44500
C417        C  0.58882091  0.41447608  0.63221902     0.05700
O418        O  0.55414182  0.37409196  0.69696247    -0.56900
H419        H  0.58726764  0.35095254  0.73622696     0.18700
O420        O  0.68675464  0.40074461  0.66969169    -0.63600
H421        H  0.65274544  0.42151345  0.62920271     0.17100
C422        C  0.60597419  0.44973121  0.62172057     0.29400
C423        C  0.59089157  0.46230211  0.59654190    -0.24500
C424        C  0.55848358  0.44040556  0.58091629    -0.23800
C425        C  0.54129651  0.40499845  0.59143034     0.40800
C426        C  0.55647200  0.39244362  0.61660509    -0.26300
O427        O  0.63694582  0.47255151  0.63718114    -0.58100
H428        H  0.60467998  0.48960460  0.58955096     0.16400
O429        O  0.50999119  0.38209592  0.57670274    -0.59600
H430        H  0.54296720  0.36514473  0.62364767     0.14900
H431        H  0.70137772  0.41999681  0.68645594     0.46800
H432        H  0.65419938  0.47835092  0.61752342     0.42100
H433        H  0.49282603  0.38027825  0.59496745     0.45600
H434        H  0.55714946  0.39531994  0.70920994     0.37100
C435        C  0.62802432  0.21313203  0.68584657    -0.27200
C436        C  0.60520916  0.21071668  0.65789117     0.02400
C437        C  0.59789856  0.23816579  0.65453950     0.30500
C438        C  0.61250522  0.26649343  0.67880876    -0.19000
C439        C  0.63475633  0.26860774  0.70712681    -0.28400
C440        C  0.64286392  0.24168719  0.70998818     0.44500
C441        C  0.58860600  0.17950638  0.63285100     0.05700
O442        O  0.57667650  0.23781456  0.62728226    -0.56900
H443        H  0.60629681  0.28703377  0.67545774     0.18700
O444        O  0.66563896  0.24311696  0.73593025    -0.63600
H445        H  0.63422151  0.19260583  0.68924090     0.17100
C446        C  0.60780638  0.16676993  0.61437642     0.29400
C447        C  0.59141455  0.13775360  0.59096117    -0.24500
C448        C  0.55561851  0.12066674  0.58485751    -0.23800
C449        C  0.53649149  0.13341959  0.60352740     0.40800
C450        C  0.55284647  0.16215470  0.62713711    -0.26300
O451        O  0.64275599  0.18270658  0.61860871    -0.58100
H452        H  0.60699540  0.12881127  0.57724647     0.16400
O453        O  0.50147848  0.11736045  0.59996336    -0.59600
H454        H  0.53723684  0.17072620  0.64143842     0.14900
H455        H  0.68871355  0.25848553  0.72543538     0.46800
H456        H  0.65236698  0.19928741  0.59791030     0.42100
H457        H  0.49731406  0.13068658  0.58077261     0.45600
H458        H  0.59200320  0.24950319  0.60615930     0.37100
C459        C  0.62864774  0.67030404  0.54586844    -0.27200
C460        C  0.61648180  0.68394124  0.57271789     0.02400
C461        C  0.58223051  0.66406965  0.58507770     0.30500
C462        C  0.56091166  0.63099627  0.57082588    -0.19000
C463        C  0.57359035  0.61683113  0.54512903    -0.28400
C464        C  0.60762790  0.63697529  0.53225776     0.44500
C465        C  0.64013761  0.71769021  0.58976536     0.05700
O466        O  0.56972882  0.67615151  0.61213273    -0.56900
H467        H  0.53489184  0.61584132  0.58102529     0.18700
O468        O  0.62073396  0.62423988  0.50653094    -0.63600
H469        H  0.65473564  0.68535147  0.53582589     0.17100
C470        C  0.67120149  0.72361889  0.60594100     0.29400
C471        C  0.68960535  0.75244355  0.62844028    -0.24500
C472        C  0.67679057  0.77486495  0.63588415    -0.23800
C473        C  0.64738614  0.77057316  0.61724268     0.40800
C474        C  0.62969006  0.74248525  0.59382048    -0.26300
O475        O  0.68221655  0.69991558  0.60255909    -0.58100
H476        H  0.71198610  0.75537715  0.64295181     0.16400
O477        O  0.63410539  0.79198319  0.62414225    -0.59600
H478        H  0.60627834  0.73865072  0.58092986     0.14900
H479        H  0.61552240  0.63118089  0.48261157     0.46800
H480        H  0.67087213  0.68310086  0.62277806     0.42100
H481        H  0.61879136  0.78162590  0.64558948     0.45600
H482        H  0.57701586  0.67019609  0.63540539     0.37100
C483        C  0.60882027  0.88891209  0.63197804    -0.27200
C484        C  0.61935552  0.92282059  0.62037832     0.02400
C485        C  0.65363591  0.94911704  0.62657021     0.30500
C486        C  0.67616091  0.94160831  0.64593384    -0.19000
C487        C  0.66495513  0.90795686  0.65875582    -0.28400
C488        C  0.63134648  0.88138791  0.65095551     0.44500
C489        C  0.59371628  0.93095515  0.60458714     0.05700
O490        O  0.66498051  0.98243035  0.61486042    -0.56900
H491        H  0.70189704  0.96219739  0.65210514     0.18700
O492        O  0.61984528  0.84823702  0.66337363    -0.63600
H493        H  0.58254752  0.86849733  0.62796898     0.17100
C494        C  0.57219801  0.91167882  0.57533241     0.29400
C495        C  0.54915221  0.92107497  0.56030583    -0.24500
C496        C  0.54741246  0.94954991  0.57417322    -0.23800
C497        C  0.56759049  0.96757096  0.60458126     0.40800
C498        C  0.59032387  0.95810820  0.61966478    -0.26300
O499        O  0.57530483  0.88533781  0.55962318    -0.58100
H500        H  0.53424846  0.90748878  0.53643865     0.16400
O501        O  0.56631856  0.99549111  0.61878544    -0.59600
H502        H  0.60581526  0.97244633  0.64291556     0.14900
H503        H  0.60944761  0.84713925  0.68761921     0.46800
H504        H  0.55427741  0.86369516  0.56686888     0.42100
H505        H  0.54544714  0.98541443  0.63432845     0.45600
H506        H  0.67466315  0.98370176  0.59016621     0.37100
C507        C  0.58022891  0.70957755  0.84015713    -0.27200
C508        C  0.58760250  0.68447046  0.85367288     0.02400
C509        C  0.62143468  0.69009724  0.85140188     0.30500
C510        C  0.64718812  0.72018051  0.83470569    -0.19000
C511        C  0.63951254  0.74484435  0.82043143    -0.28400
C512        C  0.60587251  0.73949284  0.82333665     0.44500
C513        C  0.55983373  0.65199340  0.86932455     0.05700
O514        O  0.62938723  0.66606283  0.86490884    -0.56900
H515        H  0.67291407  0.72397991  0.83220694     0.18700
O516        O  0.59769094  0.76300841  0.80880242    -0.63600
H517        H  0.55431948  0.70544785  0.84164808     0.17100
C518        C  0.54299866  0.65208688  0.90176704     0.29400
C519        C  0.52129404  0.62071516  0.91952050    -0.24500
C520        C  0.51640399  0.58934182  0.90513110    -0.23800
C521        C  0.53032455  0.58912958  0.87071653     0.40800
C522        C  0.55199269  0.62037568  0.85307515    -0.26300
O523        O  0.55050939  0.68273396  0.91828824    -0.58100
H524        H  0.51120887  0.62125170  0.94628985     0.16400
O525        O  0.52553474  0.55871575  0.85584921    -0.59600
H526        H  0.56427034  0.62005415  0.82767401     0.14900
H527        H  0.59164202  0.75599407  0.78291705     0.46800
H528        H  0.53190824  0.68733437  0.91060795     0.42100
H529        H  0.50211910  0.54751216  0.84519750     0.45600
H530        H  0.63226144  0.67033027  0.89163050     0.37100
C531        C  0.60319532  0.87649931  0.87210895    -0.27200
C532        C  0.61656998  0.91017663  0.88565823     0.02400
C533        C  0.65195146  0.93394335  0.88204225     0.30500
C534        C  0.67281156  0.92489560  0.86174873    -0.19000
C535        C  0.65863825  0.89218210  0.84543351    -0.28400
C536        C  0.62403479  0.86734955  0.85219198     0.44500
C537        C  0.59282721  0.92131955  0.89994906     0.05700
O538        O  0.66603705  0.96611096  0.89788056    -0.56900
H539        H  0.69951568  0.94393587  0.85709480     0.18700
O540        O  0.60968865  0.83506081  0.83668393    -0.63600
H541        H  0.57609712  0.85793398  0.87505950     0.17100
C542        C  0.59054881  0.94849851  0.88271011     0.29400
C543        C  0.56975545  0.96048871  0.89758639    -0.24500
C544        C  0.55032545  0.94514999  0.92915314    -0.23800
C545        C  0.55095625  0.91657157  0.94519344     0.40800
C546        C  0.57197794  0.90461357  0.93032808    -0.26300
O547        O  0.60919068  0.96404178  0.85175101    -0.58100
H548        H  0.56968335  0.98264931  0.88514640     0.16400
O549        O  0.53307259  0.90178674  0.97676251    -0.59600
H550        H  0.57314742  0.88329240  0.94342409     0.14900
H551        H  0.60955159  0.81959193  0.85640060     0.46800
H552        H  0.59469279  0.94979056  0.83117268     0.42100
H553        H  0.54911964  0.91482046  0.99691839     0.45600
H554        H  0.67250171  0.98282490  0.87732805     0.37100
C555        C  0.36124610  0.29777079  0.15237947    -0.27200
C556        C  0.39610765  0.31010431  0.15999299     0.02400
C557        C  0.40574497  0.29121861  0.18330955     0.30500
C558        C  0.38047598  0.26029718  0.19893233    -0.19000
C559        C  0.34562583  0.24783258  0.19113488    -0.28400
C560        C  0.33599044  0.26662055  0.16766724     0.44500
C561        C  0.42207601  0.34198614  0.14194799     0.05700
O562        O  0.43964097  0.30330120  0.19166249    -0.56900
H563        H  0.38797120  0.24602381  0.21734018     0.18700
O564        O  0.30205043  0.25499505  0.16006079    -0.63600
H565        H  0.35372869  0.31217423  0.13419502     0.17100
C566        C  0.44051896  0.34012059  0.11185272     0.29400
C567        C  0.46048768  0.36974002  0.09083654    -0.24500
C568        C  0.46227173  0.40142361  0.09949295    -0.23800
C569        C  0.44582777  0.40371489  0.13140745     0.40800
C570        C  0.42557746  0.37393862  0.15217228    -0.26300
O571        O  0.43751213  0.30905010  0.10152222    -0.58100
H572        H  0.47302823  0.36747663  0.06651571     0.16400
O573        O  0.44639475  0.43395423  0.14043196    -0.59600
H574        H  0.41127851  0.37543149  0.17531207     0.14900
H575        H  0.29613371  0.23773355  0.14026000     0.46800
H576        H  0.41741273  0.29841877  0.08488135     0.42100
H577        H  0.46582443  0.44579431  0.15775592     0.45600
H578        H  0.44721838  0.29084432  0.17494877     0.37100
C579        C  0.40562473  0.31621387  0.42600723    -0.27200
C580        C  0.37996022  0.31252003  0.40154903     0.02400
C581        C  0.38187996  0.34240338  0.38542839     0.30500
C582        C  0.40806054  0.37535001  0.39557947    -0.19000
C583        C  0.43248428  0.37893438  0.42173919    -0.28400
C584        C  0.43176322  0.34907864  0.43609187     0.44500
C585        C  0.35160347  0.27750380  0.39242112     0.05700
O586        O  0.35778897  0.33973892  0.36048204    -0.56900
H587        H  0.40815835  0.39806543  0.38448732     0.18700
O588        O  0.45643586  0.35186858  0.46030606    -0.63600
H589        H  0.40483626  0.29357718  0.43825471     0.17100
C590        C  0.35848398  0.25179975  0.37915362     0.29400
C591        C  0.33200211  0.22156289  0.36389771    -0.24500
C592        C  0.29866159  0.21670284  0.36150635    -0.23800
C593        C  0.29096985  0.24029333  0.37876745     0.40800
C594        C  0.31745299  0.27057596  0.39408109    -0.26300
O595        O  0.39138955  0.25723974  0.37803269    -0.58100
H596        H  0.33828280  0.20371551  0.35038896     0.16400
O597        O  0.25865384  0.23627403  0.37639518    -0.59600
H598        H  0.31165566  0.28971700  0.40513929     0.14900
H599        H  0.44529193  0.34679176  0.48469653     0.46800
H600        H  0.40032507  0.26742831  0.35357951     0.42100
H601        H  0.24547048  0.22010302  0.39650394     0.45600
H602        H  0.36456978  0.33364366  0.33704621     0.37100
C603        C  0.32341645  0.06185744  0.39619888    -0.27200
C604        C  0.35759299  0.08722055  0.38932170     0.02400
C605        C  0.36460176  0.11761431  0.37038246     0.30500
C606        C  0.33752585  0.12081657  0.35549416    -0.19000
C607        C  0.30340824  0.09396074  0.35952230    -0.28400
C608        C  0.29631870  0.06525735  0.38169332     0.44500
C609        C  0.38552004  0.08026465  0.39929403     0.05700
O610        O  0.39782272  0.14251886  0.36301429    -0.56900
H611        H  0.34331505  0.14271490  0.33785642     0.18700
O612        O  0.26328285  0.03853425  0.38554154    -0.63600
H613        H  0.31782714  0.03851629  0.41113150     0.17100
C614        C  0.40849193  0.09869468  0.42754358     0.29400
C615        C  0.43292870  0.08968845  0.43847297    -0.24500
C616        C  0.43461599  0.06198148  0.42188192    -0.23800
C617        C  0.41282378  0.04482869  0.39209754     0.40800
C618        C  0.38842042  0.05403242  0.38105511    -0.26300
O619        O  0.40626937  0.12452315  0.44565735    -0.58100
H620        H  0.44951020  0.10334079  0.46134507     0.16400
O621        O  0.41381425  0.01789127  0.37496351    -0.59600
H622        H  0.37098502  0.03996611  0.35890950     0.14900
H623        H  0.25495857  0.04338786  0.40868431     0.46800
H624        H  0.39210802  0.11321279  0.46763735     0.42100
H625        H  0.39570032  0.99659854  0.38696992     0.45600
H626        H  0.40348728  0.16079512  0.38158728     0.37100
C627        C  0.39839585  0.10886602  0.18637027    -0.27200
C628        C  0.38942350  0.08505021  0.15784980     0.02400
C629        C  0.35527004  0.06724132  0.14509397     0.30500
C630        C  0.33030609  0.07308612  0.16144096    -0.19000
C631        C  0.33948593  0.09714290  0.18987938    -0.28400
C632        C  0.37374027  0.11520969  0.20215318     0.44500
C633        C  0.41635197  0.08030213  0.14038387     0.05700
O634        O  0.34611655  0.04384584  0.11706213    -0.56900
H635        H  0.30401174  0.05920189  0.15182152     0.18700
O636        O  0.38316238  0.13893148  0.22990040    -0.63600
H637        H  0.42469660  0.12294158  0.19598404     0.17100
C638        C  0.43061502  0.09674107  0.10703103     0.29400
C639        C  0.45403943  0.08994978  0.08905224    -0.24500
C640        C  0.46348816  0.06649175  0.10372805    -0.23800
C641        C  0.45140105  0.05242247  0.13890189     0.40800
C642        C  0.42779265  0.05930068  0.15689223    -0.26300
O643        O  0.42059396  0.11827676  0.09096883    -0.58100
H644        H  0.46346308  0.10182650  0.06253113     0.16400
O645        O  0.46050166  0.03014390  0.15485936    -0.59600
H646        H  0.41745057  0.04724977  0.18313853     0.14900
H647        H  0.38977718  0.16133255  0.21762495     0.46800
H648        H  0.43565843  0.14142070  0.10179882     0.42100
H649        H  0.48122549  0.04512529  0.16957581     0.45600
H650        H  0.34688463  0.05692178  0.09470404     0.37100
C651        C  0.72764068  0.10875158  0.36996696    -0.27200
C652        C  0.70125925  0.07440634  0.37405029     0.02400
C653        C  0.70683893  0.04706905  0.36378989     0.30500
C654        C  0.73828362  0.05436600  0.34828809    -0.19000
C655        C  0.76409557  0.08883071  0.34253067    -0.28400
C656        C  0.75876533  0.11608728  0.35398047     0.44500
C657        C  0.66818187  0.06754407  0.38957385     0.05700
O658        O  0.68137849  0.01325839  0.36785974    -0.56900
H659        H  0.74190273  0.03326530  0.33892510     0.18700
O660        O  0.78322882  0.15000183  0.34791375    -0.63600
H661        H  0.72358991  0.12993716  0.37799519     0.17100
C662        C  0.66649874  0.07631810  0.42595813     0.29400
C663        C  0.63504475  0.06888272  0.44093527    -0.24500
C664        C  0.60459816  0.05276143  0.42006991    -0.23800
C665        C  0.60664440  0.04541254  0.38293317     0.40800
C666        C  0.63833945  0.05257102  0.36803279    -0.26300
O667        O  0.69524724  0.09053227  0.44766040    -0.58100
H668        H  0.63458408  0.07508003  0.46948902     0.16400
O669        O  0.57785940  0.03007705  0.36138569    -0.59600
H670        H  0.63964381  0.04625937  0.33968867     0.14900
H671        H  0.77854529  0.15546281  0.32295762     0.46800
H672        H  0.70320648  0.11572378  0.44818337     0.42100
H673        H  0.57725683  0.04952148  0.34863060     0.45600
H674        H  0.68449565  0.00656962  0.39287569     0.37100
C675        C  0.74515919  0.10633826  0.12130913    -0.27200
C676        C  0.72265060  0.07087307  0.11693198     0.02400
C677        C  0.73242551  0.04674088  0.12838912     0.30500
C678        C  0.76347044  0.05830008  0.14706990    -0.19000
C679        C  0.78437093  0.09370469  0.15483622    -0.28400
C680        C  0.77577119  0.11787476  0.14033931     0.44500
C681        C  0.68805557  0.05976184  0.10304216     0.05700
O682        O  0.71080258  0.01186394  0.12374582    -0.56900
H683        H  0.76960183  0.03949805  0.15858293     0.18700
O684        O  0.79551147  0.15257365  0.14759477    -0.63600
H685        H  0.73788750  0.12501843  0.11200077     0.17100
C686        C  0.66470575  0.06503698  0.12400354     0.29400
C687        C  0.63305337  0.05756557  0.10907996    -0.24500
C688        C  0.62465333  0.04522690  0.07317729    -0.23800
C689        C  0.64767685  0.03872055  0.05284533     0.40800
C690        C  0.67920391  0.04613456  0.06783835    -0.26300
O691        O  0.67253182  0.07704692  0.15922047    -0.58100
H692        H  0.61538934  0.06203124  0.12528117     0.16400
O693        O  0.63950570  0.02483801  0.01837896    -0.59600
H694        H  0.69703654  0.04182082  0.05175242     0.14900
H695        H  0.78603233  0.15633738  0.17053009     0.46800
H696        H  0.68184629  0.10243869  0.15738883     0.42100
H697        H  0.62680661  0.99936018  0.02214980     0.45600
H698        H  0.69546510  0.00436480  0.14541151     0.37100
C699        C  0.94335823  0.32004367  0.45424336    -0.27200
C700        C  0.94927714  0.31555276  0.41781202     0.02400
C701        C  0.96232665  0.34380040  0.39344703     0.30500
C702        C  0.96884505  0.37630521  0.40574667    -0.19000
C703        C  0.96263445  0.38102825  0.44238276    -0.28400
C704        C  0.94997120  0.35235313  0.46675647     0.44500
C705        C  0.93744022  0.28041078  0.40439394     0.05700
O706        O  0.96716588  0.33942918  0.35723189    -0.56900
H707        H  0.97862002  0.39772582  0.38654028     0.18700
O708        O  0.94383466  0.35535505  0.50294320    -0.63600
H709        H  0.93286432  0.29815869  0.47291390     0.17100
C710        C  0.96067193  0.26935365  0.39412705     0.29400
C711        C  0.94866585  0.23809823  0.37529273    -0.24500
C712        C  0.91372861  0.21832419  0.36623670    -0.23800
C713        C  0.89024011  0.22804991  0.37957508     0.40800
C714        C  0.90223837  0.25892771  0.39872301    -0.26300
O715        O  0.99525238  0.29017486  0.39970411    -0.58100
H716        H  0.96690879  0.23107312  0.36455424     0.16400
O717        O  0.85628813  0.21008439  0.36960184    -0.59600
H718        H  0.88430615  0.26745192  0.40664894     0.14900
H719        H  0.91932810  0.34911724  0.50412184     0.46800
H720        H  0.99921889  0.28569485  0.42534096     0.42100
H721        H  0.84389004  0.19676311  0.39168442     0.45600
H722        H  0.99118660  0.34414533  0.35555128     0.37100
C723        C  0.83047345  0.44191943  0.60875905    -0.27200
C724        C  0.82415643  0.41345554  0.63102769     0.02400
C725        C  0.84600042  0.39921350  0.62740382     0.30500
C726        C  0.87386372  0.41384153  0.60278444    -0.19000
C727        C  0.88082240  0.44290669  0.58099856    -0.28400
C728        C  0.85807301  0.45631616  0.58376273     0.44500
C729        C  0.79450462  0.39856341  0.65742090     0.05700
O730        O  0.84061267  0.37118783  0.64820722    -0.56900
H731        H  0.89046864  0.40260696  0.60129132     0.18700
O732        O  0.86233645  0.48342809  0.56209736    -0.63600
H733        H  0.81358581  0.45282205  0.61041297     0.17100
C734        C  0.79154174  0.41900112  0.68516583     0.29400
C735        C  0.76313206  0.40469086  0.70911723    -0.24500
C736        C  0.73690883  0.36997870  0.70583572    -0.23800
C737        C  0.73998964  0.34949202  0.67825172     0.40800
C738        C  0.76861648  0.36366267  0.65466330    -0.26300
O739        O  0.81690324  0.45274891  0.68982848    -0.58100
H740        H  0.76133849  0.42098883  0.72998432     0.16400
O741        O  0.71573618  0.31513563  0.67497190    -0.59600
H742        H  0.77034362  0.34737249  0.63373429     0.14900
H743        H  0.84979753  0.47257204  0.53916290     0.46800
H744        H  0.80742823  0.46698710  0.67960956     0.42100
H745        H  0.70207160  0.31375872  0.65304472     0.45600
H746        H  0.85722602  0.38094371  0.66867897     0.37100
C747        C  0.89126563  0.28111954  0.15871689    -0.27200
C748        C  0.92440277  0.30643490  0.14837265     0.02400
C749        C  0.95204221  0.30013887  0.15360009     0.30500
C750        C  0.94626804  0.26904115  0.16987610    -0.19000
C751        C  0.91303269  0.24399460  0.18060792    -0.28400
C752        C  0.88544545  0.25006709  0.17451912     0.44500
C753        C  0.92930925  0.33880250  0.13133987     0.05700
O754        O  0.98470342  0.32429316  0.14323606    -0.56900
H755        H  0.96772703  0.26481568  0.17503089     0.18700
O756        O  0.85296156  0.22652599  0.18601084    -0.63600
H757        H  0.86983776  0.28571530  0.15513787     0.17100
C758        C  0.91081207  0.33738108  0.09971839     0.29400
C759        C  0.91703827  0.36793413  0.08242510    -0.24500
C760        C  0.94210211  0.40038422  0.09569838    -0.23800
C761        C  0.95853421  0.40195892  0.12916666     0.40800
C762        C  0.95223640  0.37116175  0.14660804    -0.26300
O763        O  0.88882100  0.30620930  0.08368573    -0.58100
H764        H  0.90381921  0.36603715  0.05695492     0.16400
O765        O  0.98276865  0.43311231  0.14343711    -0.59600
H766        H  0.96593669  0.37251098  0.17154073     0.14900
H767        H  0.83977847  0.21635331  0.16326254     0.46800
H768        H  0.86543110  0.30233668  0.08867869     0.42100
H769        H  0.97018483  0.43937622  0.16139715     0.45600
H770        H  0.98688280  0.31846514  0.11757607     0.37100
C771        C  0.77382075  0.41186103  0.84002223    -0.27200
C772        C  0.79849374  0.40110264  0.83668067     0.02400
C773        C  0.79285637  0.37601263  0.80970965     0.30500
C774        C  0.76333435  0.36211449  0.78736032    -0.19000
C775        C  0.73864156  0.37267909  0.79103652    -0.28400
C776        C  0.74421999  0.39783062  0.81772821     0.44500
C777        C  0.82962496  0.41572902  0.86150940     0.05700
O778        O  0.81618632  0.36492368  0.80473207    -0.56900
H779        H  0.75953013  0.34264431  0.76727061     0.18700
O780        O  0.72143231  0.40981347  0.82138324    -0.63600
H781        H  0.77716589  0.43088432  0.86045530     0.17100
C782        C  0.85099834  0.45179635  0.86651138     0.29400
C783        C  0.87994263  0.46474269  0.88977366    -0.24500
C784        C  0.88856057  0.44246710  0.90900209    -0.23800
C785        C  0.86726112  0.40633052  0.90362429     0.40800
C786        C  0.83826624  0.39343456  0.88048957    -0.26300
O787        O  0.84472957  0.47477736  0.84748833    -0.58100
H788        H  0.89575835  0.49256416  0.89266990     0.16400
O789        O  0.87436150  0.38310932  0.92081752    -0.59600
H790        H  0.82228018  0.36563636  0.87753092     0.14900
H791        H  0.70744183  0.39779191  0.84322979     0.46800
H792        H  0.83552742  0.48451632  0.86578598     0.42100
H793        H  0.88983461  0.37991198  0.90386782     0.45600
H794        H  0.83396855  0.38237944  0.78830056     0.37100
C795        C  0.90251642  0.56948340  0.39367392    -0.27200
C796        C  0.92178614  0.58755570  0.36293035     0.02400
C797        C  0.94817495  0.58159242  0.35049977     0.30500
C798        C  0.95614126  0.55924852  0.36995748    -0.19000
C799        C  0.93800770  0.54261552  0.40186307    -0.28400
C800        C  0.91016250  0.54694137  0.41286122     0.44500
C801        C  0.91422343  0.61275254  0.34441986     0.05700
O802        O  0.96695806  0.59826064  0.31999398    -0.56900
H803        H  0.97774915  0.55648508  0.36119310     0.18700
O804        O  0.89121664  0.53049193  0.44338644    -0.63600
H805        H  0.88207144  0.57366489  0.40356006     0.17100
C806        C  0.88058443  0.60283793  0.33296961     0.29400
C807        C  0.87389513  0.62670750  0.31515992    -0.24500
C808        C  0.90040525  0.66058028  0.30818949    -0.23800
C809        C  0.93387932  0.67086833  0.32024634     0.40800
C810        C  0.94058980  0.64704982  0.33851159    -0.26300
O811        O  0.85421503  0.56959735  0.33815082    -0.58100
H812        H  0.84810951  0.61841190  0.30546308     0.16400
O813        O  0.96005547  0.70401332  0.31415755    -0.59600
H814        H  0.96644870  0.65527693  0.34785433     0.14900
H815        H  0.87204780  0.50824194  0.43438060     0.46800
H816        H  0.85618290  0.55601464  0.31775038     0.42100
H817        H  0.97155710  0.70267613  0.29156357     0.45600
H818        H  0.95625713  0.58142067  0.29977211     0.37100
C819        C  0.90678381  0.65186382  0.08237095    -0.27200
C820        C  0.94152435  0.66123975  0.08410350     0.02400
C821        C  0.96506200  0.69202522  0.10184939     0.30500
C822        C  0.95308112  0.71144395  0.12046973    -0.19000
C823        C  0.91769656  0.69947771  0.12261686    -0.28400
C824        C  0.89466570  0.67050087  0.10189344     0.44500
C825        C  0.95157300  0.63617596  0.07135294     0.05700
O826        O  0.99940044  0.70220651  0.10258136    -0.56900
H827        H  0.97088195  0.73355959  0.13657339     0.18700
O828        O  0.85991495  0.65808710  0.10373109    -0.63600
H829        H  0.88854137  0.62823062  0.06862076     0.17100
C830        C  0.96280912  0.61976097  0.09639392     0.29400
C831        C  0.96901402  0.59351640  0.08454221    -0.24500
C832        C  0.96387208  0.58298106  0.04780640    -0.23800
C833        C  0.95239709  0.59955477  0.02279768     0.40800
C834        C  0.94611381  0.62567946  0.03483179    -0.26300
O835        O  0.96705331  0.62863735  0.13269884    -0.58100
H836        H  0.97785751  0.58141740  0.10427267     0.16400
O837        O  0.94672825  0.59025415  0.98662802    -0.59600
H838        H  0.93674487  0.63771132  0.01559790     0.14900
H839        H  0.85180285  0.64191459  0.12488036     0.46800
H840        H  0.94403372  0.61448219  0.14386620     0.42100
H841        H  0.96806484  0.60708093  0.97379118     0.45600
H842        H  0.00437657  0.69860098  0.12816854     0.37100
C843        C  0.70646269  0.64621084  0.34037972    -0.27200
C844        C  0.70012894  0.61225784  0.34610102     0.02400
C845        C  0.72388773  0.60264696  0.33377414     0.30500
C846        C  0.75333519  0.62676472  0.31523531    -0.19000
C847        C  0.75948229  0.66057892  0.30900489    -0.28400
C848        C  0.73601587  0.67039433  0.32182145     0.44500
C849        C  0.66845414  0.58693433  0.36474742     0.05700
O850        O  0.71747225  0.56923055  0.33792228    -0.56900
H851        H  0.77091202  0.61878912  0.30458667     0.18700
O852        O  0.74165373  0.70333035  0.31586617    -0.63600
H853        H  0.68828110  0.65379164  0.35001294     0.17100
C854        C  0.66983680  0.57408126  0.39943151     0.29400
C855        C  0.63943608  0.55182777  0.41775799    -0.24500
C856        C  0.60721967  0.54239493  0.40213728    -0.23800
C857        C  0.60606794  0.55387196  0.36636060     0.40800
C858        C  0.63660381  0.57629346  0.34814654    -0.26300
O859        O  0.70076942  0.58424404  0.41623327    -0.58100
H860        H  0.64122679  0.54326512  0.44504348     0.16400
O861        O  0.57540884  0.54512897  0.34973194    -0.59600
H862        H  0.63544576  0.58592464  0.32120983     0.14900
H863        H  0.72718478  0.70144301  0.29448991     0.46800
H864        H  0.70583331  0.60538599  0.43016535     0.42100
H865        H  0.56978819  0.52422478  0.33506458     0.45600
H866        H  0.73280017  0.57015057  0.35799509     0.37100
C867        C  0.65133656  0.62655407  0.09708336    -0.27200
C868        C  0.67852398  0.64102196  0.07192278     0.02400
C869        C  0.67283774  0.62917470  0.03570293     0.30500
C870        C  0.64042199  0.60273955  0.02511654    -0.19000
C871        C  0.61308728  0.58742796  0.05036512    -0.28400
C872        C  0.61880960  0.59996777  0.08662894     0.44500
C873        C  0.71363110  0.66441468  0.08522481     0.05700
O874        O  0.69913941  0.64255987  0.01073943    -0.56900
H875        H  0.63693158  0.59392639  0.99703462     0.18700
O876        O  0.59321769  0.58594489  0.11236884    -0.63600
H877        H  0.65571063  0.63503575  0.12531638     0.17100
C878        C  0.72310159  0.69718489  0.09999857     0.29400
C879        C  0.75409821  0.71541404  0.11925898    -0.24500
C880        C  0.77531056  0.70076687  0.12440059    -0.23800
C881        C  0.76689598  0.66920281  0.10718868     0.40800
C882        C  0.73640561  0.65146793  0.08746644    -0.26300
O883        O  0.70163741  0.71083538  0.09695201    -0.58100
H884        H  0.76011227  0.73942374  0.13282885     0.16400
O885        O  0.78658400  0.65379158  0.11270283    -0.59600
H886        H  0.72919572  0.62613640  0.07642185     0.14900
H887        H  0.58185430  0.60023870  0.11124484     0.46800
H888        H  0.68828372  0.70449202  0.12004534     0.42100
H889        H  0.77675784  0.63894438  0.13468949     0.45600
H890        H  0.69941705  0.66345317  0.00062911     0.37100
C891        C  0.28046107  0.90928287  0.66245201    -0.27200
C892        C  0.29422439  0.93551207  0.63604989     0.02400
C893        C  0.27682680  0.95363341  0.62677635     0.30500
C894        C  0.24552761  0.94496049  0.64373863    -0.19000
C895        C  0.23189469  0.91866236  0.67018766    -0.28400
C896        C  0.24953686  0.90083928  0.67953254     0.44500
C897        C  0.32666939  0.94342554  0.61814351     0.05700
O898        O  0.28967506  0.97890848  0.60031752    -0.56900
H899        H  0.23191382  0.95854581  0.63627079     0.18700
O900        O  0.23665198  0.87517716  0.70561145    -0.63600
H901        H  0.29379558  0.89537921  0.66983574     0.17100
C902        C  0.35670656  0.97498141  0.62475075     0.29400
C903        C  0.38672253  0.98293662  0.60581041    -0.24500
C904        C  0.38738781  0.95954211  0.58037214    -0.23800
C905        C  0.35772746  0.92707897  0.57535172     0.40800
C906        C  0.32756371  0.91921499  0.59425812    -0.26300
O907        O  0.35673847  0.99851307  0.64900880    -0.58100
H908        H  0.40939989  0.00789947  0.61039552     0.16400
O909        O  0.35712796  0.90405877  0.55005248    -0.59600
H910        H  0.30448828  0.89465929  0.58937146     0.14900
H911        H  0.22204397  0.85343624  0.69202458     0.46800
H912        H  0.36053154  0.99103821  0.67333621     0.42100
H913        H  0.36350720  0.88880662  0.56383025     0.45600
H914        H  0.30162769  0.00112670  0.61383102     0.37100
C915        C  0.07921054  0.67495138  0.58135767    -0.27200
C916        C  0.05321601  0.67965096  0.59697215     0.02400
C917        C  0.01870728  0.65501040  0.59103896     0.30500
C918        C  0.01044762  0.62526453  0.57104993    -0.19000
C919        C  0.03629421  0.61935185  0.55682467    -0.28400
C920        C  0.07099756  0.64508102  0.56118482     0.44500
C921        C  0.06226593  0.70890537  0.62178503     0.05700
O922        O  0.99286261  0.65915367  0.60585803    -0.56900
H923        H  0.98353860  0.60623078  0.56783369     0.18700
O924        O  0.09693978  0.64159734  0.54554354    -0.63600
H925        H  0.10593590  0.69423436  0.58541405     0.17100
C926        C  0.07963446  0.71130135  0.65458929     0.29400
C927        C  0.08932264  0.73967704  0.67741502    -0.24500
C928        C  0.08109748  0.76546508  0.66850328    -0.23800
C929        C  0.06207455  0.76215193  0.63669317     0.40800
C930        C  0.05291310  0.73398806  0.61332475    -0.26300
O931        O  0.08751517  0.68617757  0.66434761    -0.58100
H932        H  0.10408363  0.74208669  0.70175291     0.16400
O933        O  0.05340144  0.78683432  0.62772559    -0.59600
H934        H  0.03897920  0.73193967  0.58836477     0.14900
H935        H  0.10701824  0.63465051  0.56580069     0.46800
H936        H  0.06651027  0.66778040  0.67638287     0.42100
H937        H  0.03127047  0.77948575  0.64037009     0.45600
H938        H  0.98821716  0.64769790  0.63015134     0.37100
C939        C  0.35548282  0.98862791  0.91213271    -0.27200
C940        C  0.33475243  0.95458315  0.90020411     0.02400
C941        C  0.34441753  0.92953660  0.90819385     0.30500
C942        C  0.37470977  0.93883578  0.92771890    -0.19000
C943        C  0.39597611  0.97316524  0.93943135    -0.28400
C944        C  0.38595984  0.99818438  0.93116333     0.44500
C945        C  0.30375774  0.94577433  0.87823656     0.05700
O946        O  0.32445497  0.89589344  0.89691307    -0.56900
H947        H  0.38156334  0.91909601  0.93356986     0.18700
O948        O  0.40562411  0.03217319  0.94147856    -0.63600
H949        H  0.34837527  0.00813837  0.90592635     0.17100
C950        C  0.27573110  0.94760076  0.89321622     0.29400
C951        C  0.24611344  0.93765003  0.87220689    -0.24500
C952        C  0.24403041  0.92555797  0.83635391    -0.23800
C953        C  0.27262442  0.92505413  0.82100733     0.40800
C954        C  0.30219908  0.93520061  0.84189358    -0.26300
O955        O  0.27653789  0.95771966  0.92877080    -0.58100
H956        H  0.22409387  0.93761379  0.88445281     0.16400
O957        O  0.27136121  0.91333502  0.78603985    -0.59600
H958        H  0.32376485  0.93410856  0.82995835     0.14900
H959        H  0.41999570  0.04418241  0.91982735     0.46800
H960        H  0.26886111  0.93636888  0.94357285     0.42100
H961        H  0.26034307  0.88776561  0.78826195     0.45600
H962        H  0.30583788  0.88500758  0.91534055     0.37100
C963        C  0.11346005  0.70652170  0.82895146    -0.27200
C964        C  0.09967309  0.69601462  0.86400372     0.02400
C965        C  0.08982797  0.71666025  0.88426027     0.30500
C966        C  0.09395752  0.74756535  0.86927709    -0.19000
C967        C  0.10765949  0.75793289  0.83410435    -0.28400
C968        C  0.11747842  0.73724252  0.81395518     0.44500
C969        C  0.09343711  0.66230744  0.87824103     0.05700
O970        O  0.07580792  0.70660371  0.91848845    -0.56900
H971        H  0.08656864  0.76346723  0.88501394     0.18700
O972        O  0.13192078  0.74746788  0.77991580    -0.63600
H973        H  0.12105860  0.69080106  0.81316528     0.17100
C974        C  0.06937912  0.63149860  0.86098042     0.29400
C975        C  0.05909472  0.59970417  0.87798737    -0.24500
C976        C  0.07284374  0.59813420  0.91193721    -0.23800
C977        C  0.09940582  0.62867126  0.92745772     0.40800
C978        C  0.10935280  0.66066611  0.91067845    -0.26300
O979        O  0.05318982  0.63244318  0.82948633    -0.58100
H980        H  0.03840105  0.57639181  0.86598538     0.16400
O981        O  0.11283487  0.62797190  0.96096894    -0.59600
H982        H  0.12819638  0.68432343  0.92390713     0.14900
H983        H  0.11372917  0.73207394  0.76260385     0.46800
H984        H  0.06523545  0.62773630  0.80948963     0.42100
H985        H  0.13245748  0.62426009  0.95558376     0.45600
H986        H  0.05078309  0.69173093  0.91435511     0.37100
C987        C  0.33960557  0.42749507  0.58632023    -0.27200
C988        C  0.33911097  0.40701086  0.61585961     0.02400
C989        C  0.36997512  0.40958618  0.62831852     0.30500
C990        C  0.40056089  0.43086021  0.60971596    -0.19000
C991        C  0.40089336  0.45025772  0.57917660    -0.28400
C992        C  0.37034297  0.44919992  0.56803508     0.44500
C993        C  0.30609073  0.38181771  0.63243109     0.05700
O994        O  0.36995736  0.38928357  0.65672030    -0.56900
H995        H  0.42383648  0.43100610  0.61812393     0.18700
O996        O  0.36983521  0.46731581  0.53780072    -0.63600
H997        H  0.31592044  0.42577656  0.57673120     0.17100
C998        C  0.29946560  0.38443691  0.66948001     0.29400
C999        C  0.26814480  0.36036079  0.68473813    -0.24500
C1000       C  0.24292257  0.33369184  0.66338532    -0.23800
C1001       C  0.24946501  0.33079329  0.62637207     0.40800
C1002       C  0.28107209  0.35484265  0.61106451    -0.26300
O1003       O  0.32311598  0.41092828  0.69075146    -0.58100
H1004       H  0.26296946  0.36316389  0.71311415     0.16400
O1005       O  0.22514569  0.30474553  0.60516764    -0.59600
H1006       H  0.28607392  0.35256636  0.58250972     0.14900
H1007       H  0.36473952  0.45125967  0.51693592     0.46800
H1008       H  0.31934106  0.43078100  0.68589163     0.42100
H1009       H  0.21368777  0.31548904  0.59143648     0.45600
H1010       H  0.38079157  0.40538780  0.67751652     0.37100
C1011       C  0.26980748  0.30978348  0.87783003    -0.27200
C1012       C  0.28889571  0.34596379  0.87335974     0.02400
C1013       C  0.28053807  0.36183495  0.84492447     0.30500
C1014       C  0.25281668  0.34175330  0.82202795    -0.19000
C1015       C  0.23280077  0.30584324  0.82738531    -0.28400
C1016       C  0.24151021  0.28970220  0.85521627     0.44500
C1017       C  0.31853600  0.36710385  0.89724339     0.05700
O1018       O  0.29982730  0.39687955  0.83890639    -0.56900
H1019       H  0.24613884  0.35437812  0.80067914     0.18700
O1020       O  0.22244823  0.25457495  0.86056290    -0.63600
H1021       H  0.27647488  0.29729414  0.89930286     0.17100
C1022       C  0.31867131  0.39206160  0.92104375     0.29400
C1023       C  0.34854951  0.41431790  0.94048585    -0.24500
C1024       C  0.37837744  0.41167355  0.93682643    -0.23800
C1025       C  0.37770223  0.38595162  0.91354631     0.40800
C1026       C  0.34795728  0.36401095  0.89403705    -0.26300
O1027       O  0.28991360  0.39522995  0.92496682    -0.58100
H1028       H  0.34838656  0.43360512  0.95843608     0.16400
O1029       O  0.40666400  0.38347815  0.90778630    -0.59600
H1030       H  0.34822073  0.34522430  0.87537076     0.14900
H1031       H  0.20500200  0.25136897  0.87913607     0.46800
H1032       H  0.27640036  0.37869189  0.94469549     0.42100
H1033       H  0.40318633  0.36305223  0.92225219     0.45600
H1034       H  0.28633841  0.40689654  0.84958665     0.37100
C1035       C  0.09068714  0.39766231  0.68184691    -0.27200
C1036       C  0.08062976  0.39613700  0.64538512     0.02400
C1037       C  0.07662564  0.36851852  0.62307128     0.30500
C1038       C  0.08349336  0.34326361  0.63720911    -0.19000
C1039       C  0.09439449  0.34529882  0.67349671    -0.28400
C1040       C  0.09771626  0.37258028  0.69591048     0.44500
C1041       C  0.07480885  0.42367518  0.63050812     0.05700
O1042       O  0.06663146  0.36639260  0.58725513    -0.56900
H1043       H  0.08119869  0.32259437  0.61967239     0.18700
O1044       O  0.10979267  0.37602646  0.73098373    -0.63600
H1045       H  0.09407507  0.41892006  0.69912189     0.17100
C1046       C  0.04825737  0.42867393  0.64412245     0.29400
C1047       C  0.03923860  0.45044510  0.62534397    -0.24500
C1048       C  0.05706673  0.46801848  0.59360554    -0.23800
C1049       C  0.08599712  0.46592197  0.58245610     0.40800
C1050       C  0.09447245  0.44349354  0.60070616    -0.26300
O1051       O  0.02894734  0.40991552  0.67353312    -0.58100
H1052       H  0.01680802  0.45175492  0.63409823     0.16400
O1053       O  0.10351429  0.48228751  0.55122444    -0.59600
H1054       H  0.11536046  0.44020171  0.59046555     0.14900
H1055       H  0.08909683  0.36677319  0.74673683     0.46800
H1056       H  0.03823186  0.42590555  0.69465725     0.42100
H1057       H  0.12098330  0.50587629  0.55915101     0.45600
H1058       H  0.04122232  0.35506770  0.58800998     0.37100
C1059       C  0.02285939  0.36647799  0.89941678    -0.27200
C1060       C  0.05675566  0.37315708  0.90171822     0.02400
C1061       C  0.08108886  0.40210962  0.92152648     0.30500
C1062       C  0.07136566  0.42411854  0.93849535    -0.19000
C1063       C  0.03739008  0.41758430  0.93616022    -0.28400
C1064       C  0.01302736  0.38835625  0.91635793     0.44500
C1065       C  0.06701701  0.35160748  0.88043041     0.05700
O1066       O  0.11450684  0.40927358  0.92411477    -0.56900
H1067       H  0.09043314  0.44621220  0.95370149     0.18700
O1068       O  0.97998312  0.38189015  0.91170554    -0.63600
H1069       H  0.00415574  0.34477340  0.88344334     0.17100
C1070       C  0.05104023  0.31540242  0.88557858     0.29400
C1071       C  0.05989081  0.29549267  0.86312473    -0.24500
C1072       C  0.08459548  0.31154257  0.83566145    -0.23800
C1073       C  0.10091817  0.34774803  0.83103186     0.40800
C1074       C  0.09191309  0.36746054  0.85311940    -0.26300
O1075       O  0.02685749  0.29937779  0.91243684    -0.58100
H1076       H  0.04768540  0.26771101  0.86716784     0.16400
O1077       O  0.12570903  0.36402855  0.80477238    -0.59600
H1078       H  0.10411934  0.39520159  0.84864016     0.14900
H1079       H  0.96612683  0.36369924  0.92994364     0.46800
H1080       H  0.03998769  0.29964334  0.93440713     0.42100
H1081       H  0.14753357  0.36881198  0.81661217     0.45600
H1082       H  0.11527030  0.39683910  0.94636437     0.37100
C1083       C  0.17338928  0.58143538  0.10207477    -0.27200
C1084       C  0.16917772  0.58122466  0.14032267     0.02400
C1085       C  0.13512072  0.56583790  0.15379409     0.30500
C1086       C  0.10672211  0.55152849  0.12959871    -0.19000
C1087       C  0.11097383  0.55153883  0.09131535    -0.28400
C1088       C  0.14504234  0.56672404  0.07791839     0.44500
C1089       C  0.20037283  0.59737001  0.16545774     0.05700
O1090       O  0.12911033  0.56425330  0.19070305    -0.56900
H1091       H  0.08110886  0.54003349  0.14105161     0.18700
O1092       O  0.15121870  0.56863470  0.04103186    -0.63600
H1093       H  0.19900791  0.59366508  0.09058117     0.17100
C1094       C  0.22763989  0.59014303  0.16149929     0.29400
C1095       C  0.25715391  0.60654128  0.18398506    -0.24500
C1096       C  0.26063376  0.63042118  0.21118894    -0.23800
C1097       C  0.23338024  0.63760050  0.21538391     0.40800
C1098       C  0.20376895  0.62113682  0.19296241    -0.26300
O1099       O  0.22511617  0.56593480  0.13660213    -0.58100
H1100       H  0.27742019  0.60022544  0.18031024     0.16400
O1101       O  0.23566399  0.66131541  0.24076218    -0.59600
H1102       H  0.18372553  0.62776734  0.19651686     0.14900
H1103       H  0.15362762  0.54810678  0.03538240     0.46800
H1104       H  0.24200237  0.57926497  0.11715585     0.42100
H1105       H  0.24655854  0.68387389  0.22769735     0.45600
H1106       H  0.12761556  0.54223907  0.19893336     0.37100
C1107       C  0.22975751  0.63371498  0.34861491    -0.27200
C1108       C  0.20402291  0.59891622  0.34371062     0.02400
C1109       C  0.20882398  0.57999508  0.31543994     0.30500
C1110       C  0.23791170  0.59596323  0.29235512    -0.19000
C1111       C  0.26323419  0.63096500  0.29683616    -0.28400
C1112       C  0.25893968  0.64959333  0.32569555     0.44500
C1113       C  0.17192369  0.58305552  0.36720271     0.05700
O1114       O  0.18537326  0.54564121  0.31028112    -0.56900
H1115       H  0.24085557  0.58075764  0.27102426     0.18700
O1116       O  0.28278915  0.68374508  0.33131539    -0.63600
H1117       H  0.22685642  0.64903008  0.36984964     0.17100
C1118       C  0.17339429  0.58476031  0.40583407     0.29400
C1119       C  0.14298792  0.57090269  0.42695400    -0.24500
C1120       C  0.11014993  0.55456764  0.41056616    -0.23800
C1121       C  0.10880444  0.55263842  0.37183323     0.40800
C1122       C  0.13921099  0.56661132  0.35080595    -0.26300
O1123       O  0.20448756  0.59952041  0.42340526    -0.58100
H1124       H  0.14523942  0.57270650  0.45646440     0.16400
O1125       O  0.07787715  0.53727723  0.35392284    -0.59600
H1126       H  0.13713692  0.56510497  0.32126731     0.14900
H1127       H  0.27579345  0.69701634  0.31494896     0.46800
H1128       H  0.20906426  0.58014640  0.42802035     0.42100
H1129       H  0.07297182  0.55634471  0.34875257     0.45600
H1130       H  0.19078237  0.53304706  0.32926096     0.37100
C1131       C  0.39756866  0.63312127  0.15326674    -0.27200
C1132       C  0.39047256  0.59878205  0.15917912     0.02400
C1133       C  0.36889781  0.58052510  0.18907035     0.30500
C1134       C  0.35557230  0.59648906  0.21225582    -0.19000
C1135       C  0.36305844  0.63094730  0.20655036    -0.28400
C1136       C  0.38420150  0.64904992  0.17641972     0.44500
C1137       C  0.40596020  0.58248837  0.13459194     0.05700
O1138       O  0.36013044  0.54670860  0.19563013    -0.56900
H1139       H  0.33886188  0.58158242  0.23458603     0.18700
O1140       O  0.39266117  0.68275579  0.16963916    -0.63600
H1141       H  0.41422077  0.64806460  0.13091540     0.17100
C1142       C  0.40406096  0.58325920  0.09595428     0.29400
C1143       C  0.41861658  0.56777582  0.07374609    -0.24500
C1144       C  0.43584630  0.55131576  0.08893451    -0.23800
C1145       C  0.43805242  0.55092984  0.12763120     0.40800
C1146       C  0.42310851  0.56602145  0.14978535    -0.26300
O1147       O  0.38768056  0.59880809  0.07938701    -0.58100
H1148       H  0.41656256  0.56892233  0.04431445     0.16400
O1149       O  0.45397407  0.53499406  0.14438352    -0.59600
H1150       H  0.42539678  0.56519599  0.17922124     0.14900
H1151       H  0.41235172  0.69691765  0.18600122     0.46800
H1152       H  0.36296114  0.58109143  0.07969815     0.42100
H1153       H  0.47703781  0.55405394  0.15134067     0.45600
H1154       H  0.33858925  0.53268603  0.18172686     0.37100
C1155       C  0.40928185  0.58172777  0.39759688    -0.27200
C1156       C  0.41099370  0.58119007  0.35913504     0.02400
C1157       C  0.42835231  0.56501850  0.34359547     0.30500
C1158       C  0.44355141  0.55026491  0.36602698    -0.19000
C1159       C  0.44214573  0.55102733  0.40459763    -0.28400
C1160       C  0.42456729  0.56711600  0.42008611     0.44500
C1161       C  0.39495528  0.59775721  0.33571769     0.05700
O1162       O  0.43038949  0.56313056  0.30633316    -0.56900
H1163       H  0.45660860  0.53816703  0.35295081     0.18700
O1164       O  0.42165680  0.56843999  0.45729491    -0.63600
H1165       H  0.39640949  0.59410841  0.41047386     0.17100
C1166       C  0.36032843  0.58937201  0.34029069     0.29400
C1167       C  0.34610259  0.60571588  0.31879094    -0.24500
C1168       C  0.36561957  0.63063869  0.29205774    -0.23800
C1169       C  0.40030753  0.63926185  0.28763493     0.40800
C1170       C  0.41450215  0.62282137  0.30898885    -0.26300
O1171       O  0.33965304  0.56403128  0.36465395    -0.58100
H1172       H  0.31939709  0.59843205  0.32268189     0.16400
O1173       O  0.42086500  0.66419346  0.26287121    -0.59600
H1174       H  0.44123393  0.63024984  0.30509863     0.14900
H1175       H  0.44123288  0.59112158  0.46470838     0.46800
H1176       H  0.33694488  0.57652385  0.38568394     0.42100
H1177       H  0.42902693  0.68656879  0.27570497     0.45600
H1178       H  0.40975457  0.54108986  0.29931227     0.37100
C1179       C  0.36587534  0.77165584  0.15699337    -0.27200
C1180       C  0.40031989  0.79745824  0.16320672     0.02400
C1181       C  0.41755729  0.79187513  0.19276228     0.30500
C1182       C  0.40062305  0.76198330  0.21520432    -0.19000
C1183       C  0.36617119  0.73641146  0.20908672    -0.28400
C1184       C  0.34903118  0.74165258  0.17931545     0.44500
C1185       C  0.41763857  0.83021300  0.13957656     0.05700
O1186       O  0.45135069  0.81523792  0.19970737    -0.56900
H1187       H  0.41483126  0.75851311  0.23723721     0.18700
O1188       O  0.31542813  0.71787360  0.17200898    -0.63600
H1189       H  0.35152829  0.77504399  0.13507738     0.17100
C1190       C  0.41598693  0.82916482  0.10084679     0.29400
C1191       C  0.43165836  0.86012953  0.07972305    -0.24500
C1192       C  0.44956897  0.89323272  0.09605621    -0.23800
C1193       C  0.45169771  0.89414369  0.13481831     0.40800
C1194       C  0.43579359  0.86324950  0.15586319    -0.26300
O1195       O  0.40036227  0.79785944  0.08315024    -0.58100
H1196       H  0.42992585  0.85806138  0.05020037     0.16400
O1197       O  0.46853813  0.92521580  0.15282054    -0.59600
H1198       H  0.43733468  0.86530406  0.18539147     0.14900
H1199       H  0.30178318  0.72279001  0.18989638     0.46800
H1200       H  0.37879703  0.79552382  0.07296614     0.42100
H1201       H  0.49198417  0.92903464  0.15737588     0.45600
H1202       H  0.46461831  0.80655494  0.18596191     0.37100
C1203       C  0.41924161  0.86242747  0.34957767    -0.27200
C1204       C  0.40642066  0.82915328  0.36518427     0.02400
C1205       C  0.40797770  0.82744187  0.40385791     0.30500
C1206       C  0.42182072  0.85787794  0.42548365    -0.19000
C1207       C  0.43455065  0.89114675  0.40980732    -0.28400
C1208       C  0.43274106  0.89278836  0.37116908     0.44500
C1209       C  0.39158928  0.79683674  0.34101619     0.05700
O1210       O  0.39576559  0.79606554  0.42114782    -0.56900
H1211       H  0.42265807  0.85528928  0.45487713     0.18700
O1212       O  0.44439639  0.92405481  0.35381740    -0.63600
H1213       H  0.41923944  0.86515796  0.32014307     0.17100
C1214       C  0.36920752  0.79207037  0.31135586     0.29400
C1215       C  0.35628715  0.76233269  0.28884866    -0.24500
C1216       C  0.36460654  0.73599004  0.29500438    -0.23800
C1217       C  0.38640252  0.74029195  0.32492618     0.40800
C1218       C  0.39987508  0.77037435  0.34709737    -0.26300
O1219       O  0.35911624  0.81605544  0.30428379    -0.58100
H1220       H  0.33902627  0.75957541  0.26672095     0.16400
O1221       O  0.39609481  0.71595315  0.33178426    -0.59600
H1222       H  0.41741840  0.77314897  0.36889900     0.14900
H1223       H  0.42412284  0.92738196  0.35209481     0.46800
H1224       H  0.34058125  0.81099676  0.32216164     0.42100
H1225       H  0.38372769  0.70386959  0.35442179     0.45600
H1226       H  0.37071884  0.78692167  0.42380406     0.37100
loop_ 
_geom_bond_atom_site_label_1 
_geom_bond_atom_site_label_2 
_geom_bond_distance 
_geom_bond_site_symmetry_2 
_ccdc_geom_bond_type 
C1            H2   1.110       .  S
C1            C7   1.557       .  S
C1            C6   1.560       .  S
C1            C5   1.563       .  S
C3            H4   1.110       .  S
C3            C9   1.556       .  S
C3            C8   1.562       .  S
C3           C10   1.560       .  S
C5            C8   1.389       .  D
C5         C1183   1.525       .  S
C6            C9   1.385       .  D
C6         C1096   1.520       .  S
C7           C10   1.386       .  D
C7         C1135   1.520       .  S
C8         C1216   1.525       .  S
C9         C1111   1.516       .  S
C10        C1168   1.517       .  S
N11          C16   1.346       .  A
N11          C15   1.347       .  A
N11          H43   1.047       .  S
N12          C19   1.353       .  A
N12          C20   1.351       .  A
N13          C18   1.347       .  A
N13          C17   1.347       .  A
N13          H44   1.046       .  S
N14          C21   1.352       .  A
N14          C22   1.352       .  A
C15          C23   1.386       .  A
C15          C31   1.407       .  A
C16          C32   1.405       .  A
C16          C24   1.387       .  A
C17          C25   1.389       .  A
C17          C34   1.412       .  A
C18          C33   1.407       .  A
C18          C26   1.385       .  A
C19          C31   1.410       .  A
C19          C27   1.385       .  A
C20          C34   1.413       .  A
C20          C28   1.388       .  A
C21          C29   1.385       .  A
C21          C32   1.409       .  A
C22          C30   1.387       .  A
C22          C33   1.412       .  A
C23          C24   1.378       .  A
C23          H35   1.083       .  S
C24          H36   1.083       .  S
C25          C26   1.377       .  A
C25          H37   1.083       .  S
C26          H38   1.083       .  S
C27          C28   1.369       .  A
C27          H39   1.082       .  S
C28          H40   1.082       .  S
C29          C30   1.368       .  A
C29          H41   1.082       .  S
C30          H42   1.082       .  S
C31        C1039   1.483       .  S
C32        C1072   1.477       .  S
C33        C1015   1.480       .  S
C34        C1000   1.478       .  S
N45          C50   1.348       .  A
N45          C49   1.349       .  A
N45          H77   1.037       .  S
N46          C53   1.353       .  A
N46          C54   1.352       .  A
N47          C52   1.351       .  A
N47          C51   1.348       .  A
N47          H78   1.035       .  S
N48          C55   1.352       .  A
N48          C56   1.352       .  A
C49          C57   1.387       .  A
C49          C65   1.409       .  A
C50          C66   1.406       .  A
C50          C58   1.385       .  A
C51          C59   1.386       .  A
C51          C68   1.406       .  A
C52          C67   1.414       .  A
C52          C60   1.387       .  A
C53          C65   1.412       .  A
C53          C61   1.387       .  A
C54          C68   1.411       .  A
C54          C62   1.386       .  A
C55          C63   1.384       .  A
C55          C66   1.410       .  A
C56          C64   1.388       .  A
C56          C67   1.416       .  A
C57          C58   1.376       .  A
C57          H69   1.083       .  S
C58          H70   1.083       .  S
C59          C60   1.378       .  A
C59          H71   1.082       .  S
C60          H72   1.082       .  S
C61          C62   1.369       .  A
C61          H73   1.082       .  S
C62          H74   1.083       .  S
C63          C64   1.369       .  A
C63          H75   1.082       .  S
C64          H76   1.082       .  S
C65         C928   1.481       .  S
C66         C967   1.481       .  S
C67         C952   1.487       .  S
C68         C895   1.477       .  S
N79          C84   1.353       .  A
N79          C83   1.353       .  A
N79         H111   1.042       .  S
N80          C87   1.347       .  A
N80          C88   1.349       .  A
N81          C86   1.351       .  A
N81          C85   1.355       .  A
N81         H112   1.042       .  S
N82          C89   1.350       .  A
N82          C90   1.349       .  A
C83          C91   1.387       .  A
C83          C99   1.411       .  A
C84         C100   1.414       .  A
C84          C92   1.389       .  A
C85          C93   1.385       .  A
C85         C102   1.410       .  A
C86         C101   1.416       .  A
C86          C94   1.391       .  A
C87          C99   1.404       .  A
C87          C95   1.386       .  A
C88         C102   1.404       .  A
C88          C96   1.385       .  A
C89          C97   1.385       .  A
C89         C100   1.407       .  A
C90          C98   1.386       .  A
C90         C101   1.408       .  A
C91          C92   1.367       .  A
C91         H103   1.082       .  S
C92         H104   1.082       .  S
C93          C94   1.367       .  A
C93         H105   1.082       .  S
C94         H106   1.081       .  S
C95          C96   1.372       .  A
C95         H107   1.083       .  S
C96         H108   1.083       .  S
C97          C98   1.374       .  A
C97         H109   1.082       .  S
C98         H110   1.083       .  S
C99         C847   1.479       .  S
C100        C880   1.484       .  S
C101        C823   1.479       .  S
C102        C808   1.484       .  S
O113        C129   1.277       .  A
O113       Zn119   2.040       .  S
C114       C1087   1.519       .  S
C114        O130   1.281       .  A
C114        O127   1.279       .  A
O115        C128   1.273   1_655  A
O115       Cd122   2.042       .  S
O116        C134   1.278       .  A
O116       Cd125   2.088   1_655  S
O117        C131   1.271       .  A
O117       Cd121   2.029   1_554  S
O118        C129   1.271       .  A
O118       Cd121   2.027   1_455  S
Zn119       O130   2.086   1_556  S
Zn119       O132   2.040       .  S
Zn119       O124   1.967       .  S
O120        C131   1.280       .  A
O120       Cd125   2.081   1_655  S
Cd121       O123   2.107       .  S
Cd121       O124   1.990   1_655  S
Cd122       O126   2.121       .  S
Cd122       O135   2.033   1_556  S
Cd122       O124   1.989   1_655  S
O123        C133   1.275       .  A
O124       Cd125   2.020   1_556  S
Cd125       O127   2.117       .  S
O126        C133   1.277       .  A
C128       C1063   1.479       .  S
C128        O132   1.280       .  A
C129        C976   1.465       .  S
C131        C832   1.480       .  S
C133        C784   1.517       .  S
C134        C760   1.477       .  S
C134        O135   1.274       .  A
O136        C152   1.280       .  A
O136       Zn142   2.080       .  S
C137        C919   1.479       .  S
C137        O153   1.278       .  A
C137        O150   1.273   1_455  A
O138        C151   1.270       .  A
O138       Cd145   2.022   1_455  S
O139        C157   1.276       .  A
O139       Cd148   2.115       .  S
O140        C154   1.281       .  A
O140       Cd144   2.098       .  S
O141        C152   1.279       .  A
O141       Cd144   2.117   1_455  S
Zn142       O153   2.035       .  S
Zn142       O155   2.038       .  S
Zn142       O147   1.969   1_455  S
O143        C154   1.271       .  A
O143       Cd148   2.025       .  S
Cd144       O146   2.096       .  S
Cd144       O147   2.018       .  S
Cd145       O149   2.020       .  S
Cd145       O158   2.092       .  S
Cd145       O147   1.983       .  S
O146        C156   1.281       .  A
O147       Cd148   1.988       .  S
Cd148       O150   2.030       .  S
O149        C156   1.270       .  A
C151       C1048   1.465       .  S
C151        O155   1.277       .  A
C152       C1120   1.518       .  S
C154        C799   1.476       .  S
C156        C703   1.481       .  S
C157        C727   1.509       .  S
C157        O158   1.273       .  A
N159        C164   1.353       .  A
N159        C163   1.355       .  A
N159        H191   1.042       .  S
N160        C167   1.349       .  A
N160        C168   1.348       .  A
N161        C166   1.356       .  A
N161        C165   1.352       .  A
N161        H192   1.041       .  S
N162        C169   1.348       .  A
N162        C170   1.348       .  A
C163        C171   1.387       .  A
C163        C179   1.413       .  A
C164        C180   1.416       .  A
C164        C172   1.389       .  A
C165        C173   1.391       .  A
C165        C182   1.417       .  A
C166        C181   1.411       .  A
C166        C174   1.385       .  A
C167        C179   1.405       .  A
C167        C175   1.384       .  A
C168        C182   1.409       .  A
C168        C176   1.388       .  A
C169        C177   1.387       .  A
C169        C180   1.408       .  A
C170        C178   1.384       .  A
C170        C181   1.404       .  A
C171        C172   1.364       .  A
C171        H183   1.081       .  S
C172        H184   1.082       .  S
C173        C174   1.365       .  A
C173        H185   1.082       .  S
C174        H186   1.082       .  S
C175        C176   1.372       .  A
C175        H187   1.083       .  S
C176        H188   1.083       .  S
C177        C178   1.373       .  A
C177        H189   1.082       .  S
C178        H190   1.083       .  S
C179        C655   1.484       .  S
C180        C679   1.482       .  S
C181        C751   1.484       .  S
C182        C712   1.478       .  S
N193        C198   1.354       .  A
N193        C197   1.350       .  A
N193        H225   1.036       .  S
N194        C201   1.353       .  A
N194        C202   1.352       .  A
N195        C200   1.355       .  A
N195        C199   1.351       .  A
N195        H226   1.037       .  S
N196        C203   1.349       .  A
N196        C204   1.351       .  A
C197        C205   1.389       .  A
C197        C213   1.417       .  A
C198        C214   1.413       .  A
C198        C206   1.386       .  A
C199        C207   1.389       .  A
C199        C216   1.417       .  A
C200        C215   1.415       .  A
C200        C208   1.387       .  A
C201        C213   1.416       .  A
C201        C209   1.387       .  A
C202        C216   1.415       .  A
C202        C210   1.386       .  A
C203        C211   1.385       .  A
C203        C214   1.402       .  A
C204        C212   1.383       .  A
C204        C215   1.399       .  A
C205        C206   1.373       .  A
C205        H217   1.082       .  S
C206        H218   1.082       .  S
C207        C208   1.371       .  A
C207        H219   1.082       .  S
C208        H220   1.081       .  S
C209        C210   1.368       .  A
C209        H221   1.082       .  S
C210        H222   1.083       .  S
C211        C212   1.370       .  A
C211        H223   1.083       .  S
C212        H224   1.083       .  S
C213        C631   1.482       .  S
C214        C607   1.479       .  S
C215        C592   1.476       .  S
C216        C559   1.480       .  S
N227        C232   1.353       .  A
N227        C231   1.355       .  A
N227        H259   1.041       .  S
N228        C235   1.348       .  A
N228        C236   1.348       .  A
N229        C234   1.354       .  A
N229        C233   1.355       .  A
N229        H260   1.041       .  S
N230        C237   1.349       .  A
N230        C238   1.348       .  A
C231        C239   1.386       .  A
C231        C247   1.411       .  A
C232        C248   1.417       .  A
C232        C240   1.390       .  A
C233        C241   1.388       .  A
C233        C250   1.416       .  A
C234        C249   1.414       .  A
C234        C242   1.387       .  A
C235        C247   1.403       .  A
C235        C243   1.384       .  A
C236        C250   1.406       .  A
C236        C244   1.386       .  A
C237        C245   1.387       .  A
C237        C248   1.408       .  A
C238        C246   1.385       .  A
C238        C249   1.403       .  A
C239        C240   1.368       .  A
C239        H251   1.082       .  S
C240        H252   1.082       .  S
C241        C242   1.369       .  A
C241        H253   1.082       .  S
C242        H254   1.082       .  S
C243        C244   1.371       .  A
C243        H255   1.083       .  S
C244        H256   1.083       .  S
C245        C246   1.372       .  A
C245        H257   1.083       .  S
C246        H258   1.083       .  S
C247        C511   1.481       .  S
C248        C472   1.483       .  S
C249        C487   1.481       .  S
C250        C535   1.483       .  S
O261        C277   1.281       .  A
O261       Zn267   2.056       .  S
C262       C1207   1.526       .  S
C262        O278   1.282       .  A
C262        O275   1.281       .  A
O263        C276   1.270       .  A
O263       Cd270   2.020   1_565  S
O264        C282   1.281       .  A
O264       Cd273   2.105       .  S
O265        C279   1.273       .  A
O265       Cd269   2.032       .  S
O266        C277   1.271   1_545  A
O266       Cd269   2.027       .  S
Zn267       O278   2.096       .  S
Zn267       O280   2.047       .  S
Zn267       O272   1.978   1_565  S
O268        C279   1.282       .  A
O268       Cd273   2.107       .  S
Cd269       O271   2.109       .  S
Cd269       O272   1.991       .  S
Cd270       O274   2.106       .  S
Cd270       O283   2.016       .  S
Cd270       O272   1.989       .  S
O271        C281   1.275       .  A
O272       Cd273   2.026       .  S
Cd273       O275   2.129   1_545  S
O274        C281   1.274       .  A
C276        C496   1.465       .  S
C276        O280   1.278       .  A
C277        C904   1.474       .  S
C279        C616   1.479       .  S
C281        C448   1.514       .  S
C282        C664   1.483       .  S
C282        O283   1.271       .  A
O284        C300   1.280       .  A
O284       Zn290   2.082       .  S
C285        C991   1.466       .  S
C285        O301   1.279       .  A
C285        O298   1.271       .  A
O286        C299   1.272       .  A
O286       Cd293   2.034       .  S
O287        C305   1.273       .  A
O287       Cd296   2.094       .  S
O288        C302   1.278       .  A
O288       Cd292   2.089       .  S
O289        C300   1.280       .  A
O289       Cd292   2.119       .  S
Zn290       O301   2.046       .  S
Zn290       O303   2.046       .  S
Zn290       O295   1.966       .  S
O291        C302   1.271       .  A
O291       Cd296   2.030       .  S
Cd292       O294   2.086       .  S
Cd292       O295   2.018       .  S
Cd293       O297   2.039       .  S
Cd293       O306   2.104       .  S
Cd293       O295   1.993       .  S
O294        C304   1.279       .  A
O295       Cd296   1.988       .  S
Cd296       O298   2.030       .  S
O297        C304   1.273       .  A
C299        C463   1.473       .  S
C299        O303   1.279       .  A
C300       C1159   1.520       .  S
C302        C583   1.470       .  S
C304        C856   1.482       .  S
C305        C424   1.508       .  S
C305        O306   1.276       .  A
O307        C323   1.282       .  A
O307       Zn313   2.104   1_554  S
C308        C943   1.492       .  S
C308        O324   1.284       .  A
C308        O321   1.273   1_565  A
O309        C322   1.271       .  A
O309       Cd316   2.028   1_565  S
O310        C328   1.278       .  A
O310       Cd319   2.127       .  S
O311        C325   1.279       .  A
O311       Cd315   2.092       .  S
O312        C323   1.280       .  A
O312       Cd315   2.127   1_565  S
Zn313       O324   2.068       .  S
Zn313       O326   2.043       .  S
Zn313       O318   1.977   1_566  S
O314        C325   1.275       .  A
O314       Cd319   2.045   1_554  S
Cd315       O317   2.081       .  S
Cd315       O318   2.023       .  S
Cd316       O320   2.039   1_556  S
Cd316       O329   2.113       .  S
Cd316       O318   2.001   1_556  S
O317        C327   1.278       .  A
O318       Cd319   1.995   1_554  S
Cd319       O321   2.044       .  S
O320        C327   1.273       .  A
C322        C544   1.467       .  S
C322        O326   1.278       .  A
C323       C1192   1.528       .  S
C325        C640   1.484       .  S
C327        C688   1.470       .  S
C328        C400   1.519       .  S
C328        O329   1.276       .  A
O330        C346   1.281       .  A
O330       Zn336   2.057       .  S
C331       C1144   1.521       .  S
C331        O347   1.282       .  A
C331        O344   1.279       .  A
O332        C345   1.272       .  A
O332       Cd339   2.030       .  S
O333        C351   1.279       .  A
O333       Cd342   2.089       .  S
O334        C348   1.276       .  A
O334       Cd338   2.053   1_554  S
O335        C346   1.274       .  A
O335       Cd338   2.047       .  S
Zn336       O347   2.098   1_556  S
Zn336       O349   2.044       .  S
Zn336       O341   1.981   1_556  S
O337        C348   1.278       .  A
O337       Cd342   2.079       .  S
Cd338       O340   2.126       .  S
Cd338       O341   2.004   1_556  S
Cd339       O343   2.105       .  S
Cd339       O352   2.046   1_556  S
Cd339       O341   1.994   1_556  S
O340        C350   1.278       .  A
O341       Cd342   2.014       .  S
Cd342       O344   2.117       .  S
O343        C350   1.275       .  A
C345        C520   1.465       .  S
C345        O349   1.278       .  A
C346       C1024   1.482       .  S
C348        C568   1.475       .  S
C350        C367   1.513       .  S
C351        C871   1.487       .  S
C351        O352   1.273       .  A
C353        H354   1.110       .  S
C353        C359   1.554       .  S
C353        C358   1.550       .  S
C353        C357   1.550       .  S
C355        H356   1.109       .  S
C355        C361   1.551       .  S
C355        C360   1.557       .  S
C355        C362   1.552       .  S
C357        C360   1.386       .  D
C357        C439   1.514       .  S
C358        C361   1.381       .  D
C358        C736   1.505       .  S
C359        C362   1.384       .  D
C359        C415   1.510       .  S
C360        C391   1.512       .  S
C361        C775   1.508       .  S
C362        C376   1.513       .  S
C363        C364   1.410       .  A
C363        C368   1.413       .  A
C363        H373   1.082       .  S
C364        C365   1.418       .  A
C364        C369   1.522       .  S
C365        C366   1.413       .  A
C365        O370   1.371       .  S
C366        C367   1.409       .  A
C366        H371   1.083       .  S
C367        C368   1.416       .  A
C368        O372   1.371       .  S
C369        C374   1.419       .  A
C369        C378   1.410       .  A
O370        H386   0.992       .  S
O372        H383   0.992       .  S
C374        C375   1.417       .  A
C374        O379   1.372       .  S
C375        C376   1.408       .  A
C375        H380   1.083       .  S
C376        C377   1.410       .  A
C377        C378   1.410       .  A
C377        O381   1.372       .  S
C378        H382   1.083       .  S
O379        H384   0.992       .  S
O381        H385   0.992       .  S
C387        C388   1.406       .  A
C387        C392   1.411       .  A
C387        H397   1.083       .  S
C388        C389   1.413       .  A
C388        C393   1.509       .  S
C389        C390   1.412       .  A
C389        O394   1.371       .  S
C390        C391   1.408       .  A
C390        H395   1.083       .  S
C391        C392   1.415       .  A
C392        O396   1.372       .  S
C393        C398   1.412       .  A
C393        C402   1.406       .  A
O394        H410   0.992       .  S
O396        H407   0.992       .  S
C398        C399   1.414       .  A
C398        O403   1.372       .  S
C399        C400   1.414       .  A
C399        H404   1.083       .  S
C400        C401   1.418       .  A
C401        C402   1.413       .  A
C401        O405   1.371       .  S
C402        H406   1.083       .  S
O403        H408   0.992       .  S
O405        H409   0.992       .  S
C411        C412   1.407       .  A
C411        C416   1.407       .  A
C411        H421   1.083       .  S
C412        C413   1.415       .  A
C412        C417   1.508       .  S
C413        C414   1.411       .  A
C413        O418   1.371       .  S
C414        C415   1.408       .  A
C414        H419   1.083       .  S
C415        C416   1.414       .  A
C416        O420   1.372       .  S
C417        C422   1.412       .  A
C417        C426   1.408       .  A
O418        H434   0.992       .  S
O420        H431   0.992       .  S
C422        C423   1.409       .  A
C422        O427   1.372       .  S
C423        C424   1.409       .  A
C423        H428   1.083       .  S
C424        C425   1.418       .  A
C425        C426   1.411       .  A
C425        O429   1.372       .  S
C426        H430   1.083       .  S
O427        H432   0.992       .  S
O429        H433   0.992       .  S
C435        C436   1.411       .  A
C435        C440   1.414       .  A
C435        H445   1.083       .  S
C436        C437   1.415       .  A
C436        C441   1.516       .  S
C437        C438   1.410       .  A
C437        O442   1.371       .  S
C438        C439   1.407       .  A
C438        H443   1.084       .  S
C439        C440   1.414       .  A
C440        O444   1.371       .  S
C441        C446   1.415       .  A
C441        C450   1.408       .  A
O442        H458   0.992       .  S
O444        H455   0.991       .  S
C446        C447   1.414       .  A
C446        O451   1.371       .  S
C447        C448   1.412       .  A
C447        H452   1.083       .  S
C448        C449   1.416       .  A
C449        C450   1.410       .  A
C449        O453   1.371       .  S
C450        H454   1.083       .  S
O451        H456   0.992       .  S
O453        H457   0.992       .  S
C459        C460   1.400       .  A
C459        C464   1.396       .  A
C459        H469   1.084       .  S
C460        C461   1.413       .  A
C460        C465   1.479       .  S
C461        C462   1.398       .  A
C461        O466   1.372       .  S
C462        C463   1.400       .  A
C462        H467   1.084       .  S
C463        C464   1.413       .  A
C464        O468   1.372       .  S
C465        C470   1.412       .  A
C465        C474   1.402       .  A
O466        H482   0.992       .  S
O468        H479   0.992       .  S
C470        C471   1.398       .  A
C470        O475   1.372       .  S
C471        C472   1.401       .  A
C471        H476   1.084       .  S
C472        C473   1.410       .  A
C473        C474   1.394       .  A
C473        O477   1.372       .  S
C474        H478   1.084       .  S
O475        H480   0.992       .  S
O477        H481   0.992       .  S
C483        C484   1.401       .  A
C483        C488   1.394       .  A
C483        H493   1.083       .  S
C484        C485   1.414       .  A
C484        C489   1.480       .  S
C485        C486   1.400       .  A
C485        O490   1.372       .  S
C486        C487   1.399       .  A
C486        H491   1.083       .  S
C487        C488   1.408       .  A
C488        O492   1.372       .  S
C489        C494   1.412       .  A
C489        C498   1.402       .  A
O490        H506   0.991       .  S
O492        H503   0.992       .  S
C494        C495   1.402       .  A
C494        O499   1.372       .  S
C495        C496   1.401       .  A
C495        H500   1.084       .  S
C496        C497   1.407       .  A
C497        C498   1.393       .  A
C497        O501   1.372       .  S
C498        H502   1.084       .  S
O499        H504   0.992       .  S
O501        H505   0.992       .  S
C507        C508   1.399       .  A
C507        C512   1.396       .  A
C507        H517   1.084       .  S
C508        C509   1.412       .  A
C508        C513   1.475       .  S
C509        C510   1.400       .  A
C509        O514   1.372       .  S
C510        C511   1.399       .  A
C510        H515   1.083       .  S
C511        C512   1.409       .  A
C512        O516   1.372       .  S
C513        C518   1.408       .  A
C513        C522   1.401       .  A
O514        H530   0.992       .  S
O516        H527   0.992       .  S
C518        C519   1.401       .  A
C518        O523   1.371       .  S
C519        C520   1.402       .  A
C519        H524   1.084       .  S
C520        C521   1.407       .  A
C521        C522   1.395       .  A
C521        O525   1.372       .  S
C522        H526   1.084       .  S
O523        H528   0.991       .  S
O525        H529   0.992       .  S
C531        C532   1.399       .  A
C531        C536   1.395       .  A
C531        H541   1.084       .  S
C532        C533   1.410       .  A
C532        C537   1.474       .  S
C533        C534   1.400       .  A
C533        O538   1.373       .  S
C534        C535   1.400       .  A
C534        H539   1.083       .  S
C535        C536   1.410       .  A
C536        O540   1.372       .  S
C537        C542   1.407       .  A
C537        C546   1.403       .  A
O538        H554   0.992       .  S
O540        H551   0.992       .  S
C542        C543   1.393       .  A
C542        O547   1.372       .  S
C543        C544   1.402       .  A
C543        H548   1.084       .  S
C544        C545   1.409       .  A
C545        C546   1.401       .  A
C545        O549   1.372       .  S
C546        H550   1.084       .  S
O547        H552   0.992       .  S
O549        H553   0.992       .  S
C555        C556   1.404       .  A
C555        C560   1.397       .  A
C555        H565   1.084       .  S
C556        C557   1.403       .  A
C556        C561   1.469       .  S
C557        C558   1.397       .  A
C557        O562   1.372       .  S
C558        C559   1.404       .  A
C558        H563   1.084       .  S
C559        C560   1.403       .  A
C560        O564   1.371       .  S
C561        C566   1.404       .  A
C561        C570   1.400       .  A
O562        H578   0.992       .  S
O564        H575   0.992       .  S
C566        C567   1.397       .  A
C566        O571   1.372       .  S
C567        C568   1.406       .  A
C567        H572   1.084       .  S
C568        C569   1.411       .  A
C569        C570   1.398       .  A
C569        O573   1.371       .  S
C570        H574   1.084       .  S
O571        H576   0.992       .  S
O573        H577   0.992       .  S
C579        C580   1.400       .  A
C579        C584   1.395       .  A
C579        H589   1.083       .  S
C580        C581   1.413       .  A
C580        C585   1.480       .  S
C581        C582   1.399       .  A
C581        O586   1.372       .  S
C582        C583   1.401       .  A
C582        H587   1.084       .  S
C583        C584   1.409       .  A
C584        O588   1.373       .  S
C585        C590   1.409       .  A
C585        C594   1.405       .  A
O586        H602   0.992       .  S
O588        H599   0.992       .  S
C590        C591   1.395       .  A
C590        O595   1.372       .  S
C591        C592   1.403       .  A
C591        H596   1.084       .  S
C592        C593   1.406       .  A
C593        C594   1.397       .  A
C593        O597   1.371       .  S
C594        H598   1.084       .  S
O595        H600   0.992       .  S
O597        H601   0.991       .  S
C603        C604   1.403       .  A
C603        C608   1.399       .  A
C603        H613   1.084       .  S
C604        C605   1.405       .  A
C604        C609   1.475       .  S
C605        C606   1.399       .  A
C605        O610   1.371       .  S
C606        C607   1.406       .  A
C606        H611   1.084       .  S
C607        C608   1.405       .  A
C608        O612   1.371       .  S
C609        C614   1.402       .  A
C609        C618   1.405       .  A
O610        H626   0.991       .  S
O612        H623   0.992       .  S
C614        C615   1.396       .  A
C614        O619   1.372       .  S
C615        C616   1.408       .  A
C615        H620   1.084       .  S
C616        C617   1.409       .  A
C617        C618   1.402       .  A
C617        O621   1.372       .  S
C618        H622   1.084       .  S
O619        H624   0.992       .  S
O621        H625   0.992   1_545  S
C627        C628   1.397       .  A
C627        C632   1.394       .  A
C627        H637   1.084       .  S
C628        C629   1.410       .  A
C628        C633   1.471       .  S
C629        C630   1.402       .  A
C629        O634   1.372       .  S
C630        C631   1.401       .  A
C630        H635   1.083       .  S
C631        C632   1.408       .  A
C632        O636   1.372       .  S
C633        C638   1.401       .  A
C633        C642   1.402       .  A
O634        H650   0.992       .  S
O636        H647   0.992       .  S
C638        C639   1.393       .  A
C638        O643   1.372       .  S
C639        C640   1.409       .  A
C639        H644   1.083       .  S
C640        C641   1.414       .  A
C641        C642   1.403       .  A
C641        O645   1.371       .  S
C642        H646   1.084       .  S
O643        H648   0.992       .  S
O645        H649   0.992       .  S
C651        C652   1.400       .  A
C651        C656   1.394       .  A
C651        H661   1.084       .  S
C652        C653   1.407       .  A
C652        C657   1.472       .  S
C653        C654   1.400       .  A
C653        O658   1.371       .  S
C654        C655   1.403       .  A
C654        H659   1.083       .  S
C655        C656   1.409       .  A
C656        O660   1.372       .  S
C657        C662   1.400       .  A
C657        C666   1.404       .  A
O658        H674   0.992       .  S
O660        H671   0.992       .  S
C662        C663   1.391       .  A
C662        O667   1.372       .  S
C663        C664   1.411       .  A
C663        H668   1.083       .  S
C664        C665   1.411       .  A
C665        C666   1.403       .  A
C665        O669   1.371       .  S
C666        H670   1.084       .  S
O667        H672   0.992       .  S
O669        H673   0.992       .  S
C675        C676   1.397       .  A
C675        C680   1.390       .  A
C675        H685   1.084       .  S
C676        C677   1.406       .  A
C676        C681   1.465       .  S
C677        C678   1.399       .  A
C677        O682   1.371       .  S
C678        C679   1.405       .  A
C678        H683   1.083       .  S
C679        C680   1.409       .  A
C680        O684   1.371       .  S
C681        C686   1.408       .  A
C681        C690   1.395       .  A
O682        H698   0.992       .  S
O684        H695   0.992       .  S
C686        C687   1.398       .  A
C686        O691   1.372       .  S
C687        C688   1.401       .  A
C687        H692   1.084       .  S
C688        C689   1.414       .  A
C689        C690   1.394       .  A
C689        O693   1.372       .  S
C690        H694   1.084       .  S
O691        H696   0.992       .  S
O693        H697   0.992   1_545  S
C699        C700   1.393       .  A
C699        C704   1.392       .  A
C699        H709   1.084       .  S
C700        C701   1.406       .  A
C700        C705   1.463       .  S
C701        C702   1.399       .  A
C701        O706   1.372       .  S
C702        C703   1.406       .  A
C702        H707   1.083       .  S
C703        C704   1.420       .  A
C704        O708   1.372       .  S
C705        C710   1.405       .  A
C705        C714   1.397       .  A
O706        H722   0.992       .  S
O708        H719   0.992       .  S
C710        C711   1.398       .  A
C710        O715   1.371       .  S
C711        C712   1.404       .  A
C711        H716   1.083       .  S
C712        C713   1.409       .  A
C713        C714   1.391       .  A
C713        O717   1.372       .  S
C714        H718   1.084       .  S
O715        H720   0.992       .  S
O717        H721   0.991       .  S
C723        C724   1.407       .  A
C723        C728   1.411       .  A
C723        H733   1.083       .  S
C724        C725   1.410       .  A
C724        C729   1.504       .  S
C725        C726   1.410       .  A
C725        O730   1.372       .  S
C726        C727   1.411       .  A
C726        H731   1.083       .  S
C727        C728   1.416       .  A
C728        O732   1.371       .  S
C729        C734   1.413       .  A
C729        C738   1.406       .  A
O730        H746   0.992       .  S
O732        H743   0.992       .  S
C734        C735   1.411       .  A
C734        O739   1.371       .  S
C735        C736   1.406       .  A
C735        H740   1.083       .  S
C736        C737   1.412       .  A
C737        C738   1.409       .  A
C737        O741   1.372       .  S
C738        H742   1.083       .  S
O739        H744   0.992       .  S
O741        H745   0.992       .  S
C747        C748   1.399       .  A
C747        C752   1.393       .  A
C747        H757   1.084       .  S
C748        C749   1.411       .  A
C748        C753   1.477       .  S
C749        C750   1.403       .  A
C749        O754   1.371       .  S
C750        C751   1.403       .  A
C750        H755   1.083       .  S
C751        C752   1.407       .  A
C752        O756   1.371       .  S
C753        C758   1.405       .  A
C753        C762   1.405       .  A
O754        H770   0.992       .  S
O756        H767   0.991       .  S
C758        C759   1.392       .  A
C758        O763   1.372       .  S
C759        C760   1.405       .  A
C759        H764   1.084       .  S
C760        C761   1.411       .  A
C761        C762   1.403       .  A
C761        O765   1.371       .  S
C762        H766   1.084       .  S
O763        H768   0.992       .  S
O765        H769   0.992       .  S
C771        C772   1.410       .  A
C771        C776   1.412       .  A
C771        H781   1.083       .  S
C772        C773   1.416       .  A
C772        C777   1.515       .  S
C773        C774   1.411       .  A
C773        O778   1.371       .  S
C774        C775   1.406       .  A
C774        H779   1.083       .  S
C775        C776   1.411       .  A
C776        O780   1.372       .  S
C777        C782   1.413       .  A
C777        C786   1.409       .  A
O778        H794   0.992       .  S
O780        H791   0.992       .  S
C782        C783   1.414       .  A
C782        O787   1.372       .  S
C783        C784   1.412       .  A
C783        H788   1.083       .  S
C784        C785   1.417       .  A
C785        C786   1.413       .  A
C785        O789   1.371       .  S
C786        H790   1.083       .  S
O787        H792   0.992       .  S
O789        H793   0.992       .  S
C795        C796   1.401       .  A
C795        C800   1.395       .  A
C795        H805   1.084       .  S
C796        C797   1.410       .  A
C796        C801   1.481       .  S
C797        C798   1.401       .  A
C797        O802   1.371       .  S
C798        C799   1.403       .  A
C798        H803   1.084       .  S
C799        C800   1.412       .  A
C800        O804   1.372       .  S
C801        C806   1.409       .  A
C801        C810   1.407       .  A
O802        H818   0.992       .  S
O804        H815   0.992       .  S
C806        C807   1.395       .  A
C806        O811   1.372       .  S
C807        C808   1.403       .  A
C807        H812   1.084       .  S
C808        C809   1.405       .  A
C809        C810   1.402       .  A
C809        O813   1.371       .  S
C810        H814   1.083       .  S
O811        H816   0.992       .  S
O813        H817   0.992       .  S
C819        C820   1.400       .  A
C819        C824   1.392       .  A
C819        H829   1.084       .  S
C820        C821   1.406       .  A
C820        C825   1.469       .  S
C821        C822   1.399       .  A
C821        O826   1.373       .  S
C822        C823   1.403       .  A
C822        H827   1.084       .  S
C823        C824   1.409       .  A
C824        O828   1.372       .  S
C825        C830   1.407       .  A
C825        C834   1.397       .  A
O826        H842   0.992   1_655  S
O828        H839   0.992       .  S
C830        C831   1.395       .  A
C830        O835   1.372       .  S
C831        C832   1.404       .  A
C831        H836   1.083       .  S
C832        C833   1.418       .  A
C833        C834   1.395       .  A
C833        O837   1.372   1_554  S
C834        H838   1.084       .  S
O835        H840   0.992       .  S
O837        H841   0.992       .  S
C843        C844   1.404       .  A
C843        C848   1.399       .  A
C843        H853   1.084       .  S
C844        C845   1.404       .  A
C844        C849   1.470       .  S
C845        C846   1.395       .  A
C845        O850   1.372       .  S
C846        C847   1.403       .  A
C846        H851   1.084       .  S
C847        C848   1.404       .  A
C848        O852   1.372       .  S
C849        C854   1.403       .  A
C849        C858   1.400       .  A
O850        H866   0.992       .  S
O852        H863   0.992       .  S
C854        C855   1.395       .  A
C854        O859   1.372       .  S
C855        C856   1.410       .  A
C855        H860   1.083       .  S
C856        C857   1.412       .  A
C857        C858   1.399       .  A
C857        O861   1.371       .  S
C858        H862   1.084       .  S
O859        H864   0.992       .  S
O861        H865   0.992       .  S
C867        C868   1.403       .  A
C867        C872   1.401       .  A
C867        H877   1.084       .  S
C868        C869   1.402       .  A
C868        C873   1.474       .  S
C869        C870   1.397       .  A
C869        O874   1.372       .  S
C870        C871   1.410       .  A
C870        H875   1.083   1_554  S
C871        C872   1.413       .  A
C872        O876   1.371       .  S
C873        C878   1.408       .  A
C873        C882   1.400       .  A
O874        H890   0.992       .  S
O876        H887   0.992       .  S
C878        C879   1.403       .  A
C878        O883   1.372       .  S
C879        C880   1.404       .  A
C879        H884   1.083       .  S
C880        C881   1.408       .  A
C881        C882   1.394       .  A
C881        O885   1.372       .  S
C882        H886   1.084       .  S
O883        H888   0.992       .  S
O885        H889   0.992       .  S
C891        C892   1.397       .  A
C891        C896   1.392       .  A
C891        H901   1.084       .  S
C892        C893   1.410       .  A
C892        C897   1.470       .  S
C893        C894   1.402       .  A
C893        O898   1.372       .  S
C894        C895   1.400       .  A
C894        H899   1.083       .  S
C895        C896   1.409       .  A
C896        O900   1.372       .  S
C897        C902   1.403       .  A
C897        C906   1.403       .  A
O898        H914   0.992   1_565  S
O900        H911   0.992       .  S
C902        C903   1.394       .  A
C902        O907   1.372       .  S
C903        C904   1.408       .  A
C903        H908   1.084   1_565  S
C904        C905   1.408       .  A
C905        C906   1.400       .  A
C905        O909   1.371       .  S
C906        H910   1.084       .  S
O907        H912   0.992       .  S
O909        H913   0.991       .  S
C915        C916   1.403       .  A
C915        C920   1.400       .  A
C915        H925   1.084       .  S
C916        C917   1.400       .  A
C916        C921   1.469       .  S
C917        C918   1.392       .  A
C917        O922   1.372   1_455  S
C918        C919   1.409       .  A
C918        H923   1.083   1_455  S
C919        C920   1.411       .  A
C920        O924   1.372       .  S
C921        C926   1.404       .  A
C921        C930   1.404       .  A
O922        H938   0.992       .  S
O924        H935   0.992       .  S
C926        C927   1.391       .  A
C926        O931   1.372       .  S
C927        C928   1.403       .  A
C927        H932   1.082       .  S
C928        C929   1.406       .  A
C929        C930   1.400       .  A
C929        O933   1.370       .  S
C930        H934   1.083       .  S
O931        H936   0.992       .  S
O933        H937   0.992       .  S
C939        C940   1.397       .  A
C939        C944   1.398       .  A
C939        H949   1.084   1_565  S
C940        C941   1.408       .  A
C940        C945   1.479       .  S
C941        C942   1.403       .  A
C941        O946   1.372       .  S
C942        C943   1.407       .  A
C942        H947   1.083       .  S
C943        C944   1.420       .  A
C944        O948   1.372   1_565  S
C945        C950   1.410       .  A
C945        C954   1.401       .  A
O946        H962   0.992       .  S
O948        H959   0.992       .  S
C950        C951   1.402       .  A
C950        O955   1.371       .  S
C951        C952   1.403       .  A
C951        H956   1.083       .  S
C952        C953   1.410       .  A
C953        C954   1.397       .  A
C953        O957   1.372       .  S
C954        H958   1.084       .  S
O955        H960   0.992       .  S
O957        H961   0.992       .  S
C963        C964   1.398       .  A
C963        C968   1.395       .  A
C963        H973   1.084       .  S
C964        C965   1.410       .  A
C964        C969   1.473       .  S
C965        C966   1.400       .  A
C965        O970   1.371       .  S
C966        C967   1.400       .  A
C966        H971   1.083       .  S
C967        C968   1.409       .  A
C968        O972   1.372       .  S
C969        C974   1.405       .  A
C969        C978   1.403       .  A
O970        H986   0.992       .  S
O972        H983   0.991       .  S
C974        C975   1.394       .  A
C974        O979   1.372       .  S
C975        C976   1.402       .  A
C975        H980   1.084       .  S
C976        C977   1.408       .  A
C977        C978   1.400       .  A
C977        O981   1.371       .  S
C978        H982   1.084       .  S
O979        H984   0.992       .  S
O981        H985   0.992       .  S
C987        C988   1.403       .  A
C987        C992   1.399       .  A
C987        H997   1.084       .  S
C988        C989   1.406       .  A
C988        C993   1.472       .  S
C989        C990   1.396       .  A
C989        O994   1.373       .  S
C990        C991   1.403       .  A
C990        H995   1.084       .  S
C991        C992   1.406       .  A
C992        O996   1.372       .  S
C993        C998   1.405       .  A
C993       C1002   1.406       .  A
O994       H1010   0.992       .  S
O996       H1007   0.992       .  S
C998        C999   1.392       .  A
C998       O1003   1.371       .  S
C999       C1000   1.403       .  A
C999       H1004   1.084       .  S
C1000      C1001   1.405       .  A
C1001      C1002   1.400       .  A
C1001      O1005   1.372       .  S
C1002      H1006   1.084       .  S
O1003      H1008   0.992       .  S
O1005      H1009   0.992       .  S
C1011      C1012   1.406       .  A
C1011      C1016   1.403       .  A
C1011      H1021   1.083       .  S
C1012      C1013   1.405       .  A
C1012      C1017   1.475       .  S
C1013      C1014   1.394       .  A
C1013      O1018   1.372       .  S
C1014      C1015   1.403       .  A
C1014      H1019   1.084       .  S
C1015      C1016   1.404       .  A
C1016      O1020   1.371       .  S
C1017      C1022   1.409       .  A
C1017      C1026   1.397       .  A
O1018      H1034   0.992       .  S
O1020      H1031   0.992       .  S
C1022      C1023   1.402       .  A
C1022      O1027   1.372       .  S
C1023      C1024   1.405       .  A
C1023      H1028   1.083       .  S
C1024      C1025   1.415       .  A
C1025      C1026   1.397       .  A
C1025      O1029   1.372       .  S
C1026      H1030   1.084       .  S
O1027      H1032   0.992       .  S
O1029      H1033   0.992       .  S
C1035      C1036   1.398       .  A
C1035      C1040   1.395       .  A
C1035      H1045   1.084       .  S
C1036      C1037   1.410       .  A
C1036      C1041   1.473       .  S
C1037      C1038   1.399       .  A
C1037      O1042   1.372       .  S
C1038      C1039   1.401       .  A
C1038      H1043   1.083       .  S
C1039      C1040   1.410       .  A
C1040      O1044   1.370       .  S
C1041      C1046   1.406       .  A
C1041      C1050   1.402       .  A
O1042      H1058   0.992       .  S
O1044      H1055   0.992       .  S
C1046      C1047   1.397       .  A
C1046      O1051   1.372       .  S
C1047      C1048   1.405       .  A
C1047      H1052   1.084       .  S
C1048      C1049   1.406       .  A
C1049      C1050   1.397       .  A
C1049      O1053   1.371       .  S
C1050      H1054   1.084       .  S
O1051      H1056   0.992       .  S
O1053      H1057   0.992       .  S
C1059      C1060   1.399       .  A
C1059      C1064   1.396       .  A
C1059      H1069   1.084       .  S
C1060      C1061   1.408       .  A
C1060      C1065   1.474       .  S
C1061      C1062   1.398       .  A
C1061      O1066   1.372       .  S
C1062      C1063   1.404       .  A
C1062      H1067   1.083       .  S
C1063      C1064   1.415       .  A
C1064      O1068   1.372   1_455  S
C1065      C1070   1.411       .  A
C1065      C1074   1.399       .  A
O1066      H1082   0.992       .  S
O1068      H1079   0.992       .  S
C1070      C1071   1.402       .  A
C1070      O1075   1.371       .  S
C1071      C1072   1.400       .  A
C1071      H1076   1.083       .  S
C1072      C1073   1.408       .  A
C1073      C1074   1.391       .  A
C1073      O1077   1.372       .  S
C1074      H1078   1.084       .  S
O1075      H1080   0.992       .  S
O1077      H1081   0.991       .  S
C1083      C1084   1.411       .  A
C1083      C1088   1.414       .  A
C1083      H1093   1.083       .  S
C1084      C1085   1.416       .  A
C1084      C1089   1.524       .  S
C1085      C1086   1.416       .  A
C1085      O1090   1.371       .  S
C1086      C1087   1.413       .  A
C1086      H1091   1.083       .  S
C1087      C1088   1.416       .  A
C1088      O1092   1.371       .  S
C1089      C1094   1.416       .  A
C1089      C1098   1.412       .  A
O1090      H1106   0.992       .  S
O1092      H1103   0.992       .  S
C1094      C1095   1.415       .  A
C1094      O1099   1.372       .  S
C1095      C1096   1.407       .  A
C1095      H1100   1.084       .  S
C1096      C1097   1.415       .  A
C1097      C1098   1.417       .  A
C1097      O1101   1.371       .  S
C1098      H1102   1.083       .  S
O1099      H1104   0.992       .  S
O1101      H1105   0.991       .  S
C1107      C1108   1.409       .  A
C1107      C1112   1.413       .  A
C1107      H1117   1.083       .  S
C1108      C1109   1.416       .  A
C1108      C1113   1.516       .  S
C1109      C1110   1.414       .  A
C1109      O1114   1.371       .  S
C1110      C1111   1.409       .  A
C1110      H1115   1.083       .  S
C1111      C1112   1.413       .  A
C1112      O1116   1.371       .  S
C1113      C1118   1.414       .  A
C1113      C1122   1.408       .  A
O1114      H1130   0.992       .  S
O1116      H1127   0.992       .  S
C1118      C1119   1.415       .  A
C1118      O1123   1.371       .  S
C1119      C1120   1.412       .  A
C1119      H1124   1.083       .  S
C1120      C1121   1.418       .  A
C1121      C1122   1.413       .  A
C1121      O1125   1.371       .  S
C1122      H1126   1.083       .  S
O1123      H1128   0.992       .  S
O1125      H1129   0.992       .  S
C1131      C1132   1.411       .  A
C1131      C1136   1.414       .  A
C1131      H1141   1.083       .  S
C1132      C1133   1.417       .  A
C1132      C1137   1.522       .  S
C1133      C1134   1.415       .  A
C1133      O1138   1.371       .  S
C1134      C1135   1.409       .  A
C1134      H1139   1.083       .  S
C1135      C1136   1.414       .  A
C1136      O1140   1.371       .  S
C1137      C1142   1.416       .  A
C1137      C1146   1.409       .  A
O1138      H1154   0.992       .  S
O1140      H1151   0.992       .  S
C1142      C1143   1.416       .  A
C1142      O1147   1.371       .  S
C1143      C1144   1.412       .  A
C1143      H1148   1.083       .  S
C1144      C1145   1.419       .  A
C1145      C1146   1.415       .  A
C1145      O1149   1.371       .  S
C1146      H1150   1.083       .  S
O1147      H1152   0.992       .  S
O1149      H1153   0.992       .  S
C1155      C1156   1.409       .  A
C1155      C1160   1.415       .  A
C1155      H1165   1.083       .  S
C1156      C1157   1.414       .  A
C1156      C1161   1.519       .  S
C1157      C1158   1.415       .  A
C1157      O1162   1.371       .  S
C1158      C1159   1.413       .  A
C1158      H1163   1.083       .  S
C1159      C1160   1.418       .  A
C1160      O1164   1.371       .  S
C1161      C1166   1.415       .  A
C1161      C1170   1.411       .  A
O1162      H1178   0.992       .  S
O1164      H1175   0.992       .  S
C1166      C1167   1.416       .  A
C1166      O1171   1.372       .  S
C1167      C1168   1.408       .  A
C1167      H1172   1.084       .  S
C1168      C1169   1.414       .  A
C1169      C1170   1.415       .  A
C1169      O1173   1.371       .  S
C1170      H1174   1.083       .  S
O1171      H1176   0.992       .  S
O1173      H1177   0.992       .  S
C1179      C1180   1.413       .  A
C1179      C1184   1.417       .  A
C1179      H1189   1.082       .  S
C1180      C1181   1.418       .  A
C1180      C1185   1.530       .  S
C1181      C1182   1.417       .  A
C1181      O1186   1.371       .  S
C1182      C1183   1.410       .  A
C1182      H1187   1.083       .  S
C1183      C1184   1.415       .  A
C1184      O1188   1.371       .  S
C1185      C1190   1.418       .  A
C1185      C1194   1.411       .  A
O1186      H1202   0.992       .  S
O1188      H1199   0.992       .  S
C1190      C1191   1.421       .  A
C1190      O1195   1.372       .  S
C1191      C1192   1.413       .  A
C1191      H1196   1.083       .  S
C1192      C1193   1.420       .  A
C1193      C1194   1.417       .  A
C1193      O1197   1.371       .  S
C1194      H1198   1.083       .  S
O1195      H1200   0.992       .  S
O1197      H1201   0.992       .  S
C1203      C1204   1.412       .  A
C1203      C1208   1.416       .  A
C1203      H1213   1.083       .  S
C1204      C1205   1.419       .  A
C1204      C1209   1.531       .  S
C1205      C1206   1.418       .  A
C1205      O1210   1.371       .  S
C1206      C1207   1.413       .  A
C1206      H1211   1.083       .  S
C1207      C1208   1.419       .  A
C1208      O1212   1.371       .  S
C1209      C1214   1.420       .  A
C1209      C1218   1.413       .  A
O1210      H1226   0.991       .  S
O1212      H1223   0.992       .  S
C1214      C1215   1.416       .  A
C1214      O1219   1.371       .  S
C1215      C1216   1.410       .  A
C1215      H1220   1.083       .  S
C1216      C1217   1.415       .  A
C1217      C1218   1.419       .  A
C1217      O1221   1.372       .  S
C1218      H1222   1.082       .  S
O1219      H1224   0.992       .  S
O1221      H1225   0.992       .  S
