geometry optimzed in LAMMPS
_audit_creation_date              2020-11-30 
_audit_creation_method            'lammps2cif' 
_symmetry_space_group_name_H-M    'P1' 
_symmetry_Int_Tables_number       1 
_symmetry_cell_setting            triclinic 
loop_ 
_symmetry_equiv_pos_as_xyz 
  x,y,z 
_cell_length_a                    43.96649428 
_cell_length_b                    44.519352852953965 
_cell_length_c                    36.820728996492626 
_cell_angle_alpha                 89.81548374432754 
_cell_angle_beta                  90.15925751796439 
_cell_angle_gamma                 120.65641435409565 
loop_ 
_atom_site_label 
_atom_site_type_symbol 
_atom_site_fract_x 
_atom_site_fract_y 
_atom_site_fract_z 
_atom_site_charge 
C1          C  0.33640240  0.66753967  0.21351832     0.47300
H2          H  0.33507152  0.66696062  0.18339860    -0.01700
C3          C  0.33926997  0.66880764  0.28407313     0.47400
H4          H  0.33986276  0.66871377  0.31420766    -0.01700
C5          C  0.35669738  0.70527599  0.22914575    -0.15400
C6          C  0.29937382  0.64929060  0.23201353    -0.15100
C7          C  0.35580936  0.64930800  0.22910631    -0.15500
C8          C  0.35742454  0.70596614  0.26686310    -0.15500
C9          C  0.30106832  0.64998713  0.26930696    -0.15000
C10         C  0.35692139  0.64970123  0.26658708    -0.15400
N11         N  0.08443186  0.29979547  0.77140502    -0.34700
N12         N  0.13256377  0.28870788  0.81317269    -0.55300
N13         N  0.17682693  0.29596225  0.74978137    -0.34700
N14         N  0.12672878  0.30381583  0.70753449    -0.55300
C15         C  0.07868755  0.30745304  0.80533007     0.28900
C16         C  0.07874758  0.32017534  0.74839745     0.28900
C17         C  0.20067291  0.30720817  0.77717537     0.28900
C18         C  0.19524622  0.31002403  0.71877653     0.28900
C19         C  0.10865902  0.28215971  0.83948562     0.37500
C20         C  0.15821641  0.28482023  0.82838994     0.37500
C21         C  0.10106936  0.30763962  0.69223092     0.37500
C22         C  0.14567406  0.30168267  0.67997607     0.37500
C23         C  0.06754255  0.33155401  0.80345607    -0.20000
C24         C  0.06746816  0.33943828  0.76759896    -0.20000
C25         C  0.23459318  0.32694968  0.76316961    -0.20000
C26         C  0.23118926  0.32842677  0.72630393    -0.20000
C27         C  0.11790705  0.27164659  0.87102395    -0.21100
C28         C  0.14971315  0.27392539  0.86412311    -0.21100
C29         C  0.10254131  0.30611684  0.65473056    -0.21100
C30         C  0.13066872  0.30196191  0.64693368    -0.21100
C31         C  0.08542498  0.29514371  0.83810900    -0.16400
C32         C  0.08470757  0.32310110  0.71064067    -0.16400
C33         C  0.18053585  0.30888357  0.68426223    -0.16400
C34         C  0.19275517  0.30159837  0.81462943    -0.16400
H35         H  0.06181348  0.34382032  0.82557618     0.16500
H36         H  0.06098334  0.35821395  0.75703211     0.16500
H37         H  0.25930477  0.33981826  0.77800371     0.16500
H38         H  0.25273627  0.34301915  0.70750787     0.16500
H39         H  0.10532298  0.26696741  0.89732843     0.14800
H40         H  0.16640347  0.27130807  0.88401283     0.14800
H41         H  0.08709408  0.31086323  0.63509089     0.14800
H42         H  0.14111685  0.30286181  0.62010808     0.14800
H43         H  0.09127228  0.28135633  0.76430109     0.28000
H44         H  0.14958343  0.27935241  0.75205915     0.28000
N45         N  0.10901168  0.80140781  0.74669697    -0.34700
N46         N  0.16774699  0.84373758  0.79500956    -0.55300
N47         N  0.20574572  0.89792776  0.74143429    -0.34700
N48         N  0.14495750  0.85761304  0.69459465    -0.55300
C49         C  0.10796099  0.77739112  0.77009763     0.28900
C50         C  0.09578131  0.78484334  0.71475059     0.28900
C51         C  0.23226660  0.90245913  0.76373340     0.28900
C52         C  0.22016419  0.90924080  0.70820581     0.28900
C53         C  0.14605104  0.81798104  0.81783907     0.37500
C54         C  0.19528484  0.86710182  0.81516892     0.37500
C55         C  0.11450134  0.83718813  0.67662957     0.37500
C56         C  0.16439534  0.88572796  0.67337549     0.37500
C57         C  0.09258274  0.74503659  0.75339795    -0.20000
C58         C  0.08502725  0.74972635  0.71848115    -0.20000
C59         C  0.26409089  0.91879502  0.74509137    -0.20000
C60         C  0.25649445  0.92322386  0.71010095    -0.20000
C61         C  0.15869104  0.82603820  0.85312434    -0.21100
C62         C  0.19006806  0.85722809  0.85140177    -0.21100
C63         C  0.11344498  0.85366945  0.64503849    -0.21100
C64         C  0.14529742  0.88435791  0.64281395    -0.21100
C65         C  0.12173429  0.78415571  0.80571464    -0.16400
C66         C  0.09477188  0.80085431  0.68185167    -0.16400
C67         C  0.20135997  0.90552157  0.67570943    -0.16400
C68         C  0.22830912  0.89077089  0.79998268    -0.16400
H69         H  0.08854274  0.72077185  0.76462094     0.16500
H70         H  0.07415498  0.72960637  0.69792654     0.16500
H71         H  0.28998815  0.92566931  0.75517502     0.16500
H72         H  0.27553024  0.93438114  0.68825330     0.16500
H73         H  0.14830502  0.80943813  0.87685466     0.14800
H74         H  0.20860332  0.86944190  0.87354744     0.14800
H75         H  0.09376421  0.84267308  0.62370766     0.14800
H76         H  0.15479784  0.90172243  0.61959249     0.14800
H77         H  0.11745920  0.82741788  0.75251000     0.28000
H78         H  0.17941870  0.88806610  0.74861363     0.28000
N79         N  0.80544741  0.70587729  0.24744859    -0.34700
N80         N  0.85232805  0.69186007  0.28947776    -0.55300
N81         N  0.89895183  0.70433385  0.22697102    -0.34700
N82         N  0.85304820  0.71919696  0.18510362    -0.55300
C83         C  0.78488382  0.68946571  0.27668813     0.28900
C84         C  0.78320430  0.69945669  0.21919792     0.28900
C85         C  0.90561179  0.68335918  0.24804909     0.28900
C86         C  0.90866993  0.70185148  0.19274264     0.28900
C87         C  0.83063196  0.68973894  0.31649547     0.37500
C88         C  0.87661513  0.68593759  0.30490095     0.37500
C89         C  0.82773170  0.72343432  0.16946143     0.37500
C90         C  0.87829974  0.72778563  0.15972188     0.37500
C91         C  0.74954595  0.67522710  0.26755815    -0.20000
C92         C  0.74845743  0.68111009  0.23134340    -0.20000
C93         C  0.92119240  0.66882843  0.22748914    -0.20000
C94         C  0.92315556  0.68046302  0.19273458    -0.20000
C95         C  0.84218027  0.68411937  0.34947526    -0.21100
C96         C  0.87130776  0.68158599  0.34210033    -0.21100
C97         C  0.83752001  0.73609881  0.13443869    -0.21100
C98         C  0.86993891  0.73950542  0.12845655    -0.21100
C99         C  0.79646290  0.68389772  0.31054262    -0.16400
C100        C  0.79278699  0.70700075  0.18221825    -0.16400
C101        C  0.90277806  0.71626533  0.16096156    -0.16400
C102        C  0.89750647  0.67615029  0.28521824    -0.16400
H103        H  0.72661774  0.66023517  0.28462940     0.16500
H104        H  0.72445290  0.67159107  0.21567255     0.16500
H105        H  0.92941969  0.65083093  0.23631632     0.16500
H106        H  0.93273763  0.67255364  0.16986304     0.16500
H107        H  0.82912783  0.67925138  0.37553654     0.14800
H108        H  0.88523571  0.67451171  0.36140020     0.14800
H109        H  0.82157798  0.73970470  0.11441189     0.14800
H110        H  0.88383034  0.74610684  0.10277595     0.14800
H111        H  0.83293708  0.72014467  0.24670267     0.28000
H112        H  0.88933856  0.72016865  0.23565714     0.28000
O113        O  0.06705569  0.55662464  0.96106454    -0.76600
C114        C  0.07673931  0.54768840  0.07481285     0.84400
O115        O  0.99205694  0.43286439  0.98243335    -0.77700
O116        O  0.96719723  0.47487657  0.09157168    -0.79200
O117        O  0.96930356  0.56144695  0.00393734    -0.79000
O118        O  0.02060876  0.55938315  0.94085864    -0.77600
Zn119      Zn  0.04650064  0.51871162  0.99884538     1.55700
O120        O  0.97874627  0.55433248  0.06201213    -0.79000
Cd121      Cd  0.98038454  0.52849069  0.97536193     1.59700
Cd122      Cd  0.96377719  0.45467193  0.00134594     1.59600
O123        O  0.93639629  0.49476050  0.94388183    -0.79000
O124        O  0.99764079  0.50551543  0.00924428    -1.89500
Cd125      Cd  0.99731000  0.51969924  0.06089591     1.59900
O126        O  0.92265092  0.44232717  0.96366409    -0.79000
O127        O  0.04758107  0.54427262  0.08568821    -0.77600
C128        C  0.02464782  0.44498999  0.97551476     0.84900
C129        C  0.05329322  0.56913288  0.93994888     0.84600
O130        O  0.07900888  0.53778640  0.04298227    -0.76600
C131        C  0.97004056  0.56892375  0.03742248     0.85400
O132        O  0.04791502  0.47708228  0.97994875    -0.76700
C133        C  0.91660604  0.46161582  0.94262809     0.85500
C134        C  0.94942181  0.44245650  0.08360189     0.85800
O135        O  0.94457255  0.43153080  0.05092467    -0.79100
O136        O  0.08849959  0.55312405  0.47182447    -0.76600
C137        C  0.03044966  0.59163442  0.53680604     0.84400
O138        O  0.01563433  0.46757945  0.56710220    -0.77700
O139        O  0.92838172  0.49342187  0.54421805    -0.79200
O140        O  0.97312962  0.50794591  0.41698860    -0.79000
O141        O  0.05564280  0.52369645  0.42452809    -0.77600
Zn142      Zn  0.05206738  0.53884877  0.51393552     1.55700
O143        O  0.95051518  0.52695356  0.45930792    -0.79000
Cd144      Cd  0.00474780  0.49433718  0.44622568     1.59700
Cd145      Cd  0.98122922  0.46158243  0.52743558     1.59600
O146        O  0.99075769  0.44220783  0.44014149    -0.79000
O147        O  0.00327787  0.50527098  0.49873706    -1.89500
Cd148      Cd  0.97004038  0.52238292  0.50786783     1.59900
O149        O  0.97586263  0.42130673  0.49634212    -0.79000
O150        O  0.99816823  0.57155510  0.52837453    -0.77600
C151        C  0.04784776  0.48958739  0.57385023     0.84900
C152        C  0.08579932  0.54519463  0.43809218     0.84600
O153        O  0.05351878  0.58251317  0.53299849    -0.76600
C154        C  0.95472781  0.52144774  0.42630991     0.85400
O155        O  0.06585044  0.51739827  0.55516773    -0.76700
C156        C  0.98137255  0.41753850  0.46323674     0.85500
C157        C  0.91795454  0.46410181  0.55968761     0.85800
O158        O  0.93423485  0.44770344  0.55418849    -0.79100
N159        N  0.81416019  0.11397270  0.27904370    -0.34700
N160        N  0.87219211  0.14935606  0.33147086    -0.55300
N161        N  0.90892182  0.21029132  0.28601170    -0.34700
N162        N  0.85297174  0.17427535  0.23272705    -0.55300
C163        C  0.79788830  0.09847228  0.31057460     0.28900
C164        C  0.78853659  0.11046541  0.25585086     0.28900
C165        C  0.92211576  0.22314349  0.31929934     0.28900
C166        C  0.91083144  0.23703334  0.26650827     0.28900
C167        C  0.85138217  0.11917548  0.34925661     0.37500
C168        C  0.90175786  0.16738711  0.35166547     0.37500
C169        C  0.82704857  0.15325763  0.20953803     0.37500
C170        C  0.87504860  0.20332706  0.21386399     0.37500
C171        C  0.76153541  0.08342628  0.30646894    -0.20000
C172        C  0.75569127  0.09088368  0.27203463    -0.20000
C173        C  0.93287670  0.25840551  0.32045280    -0.20000
C174        C  0.92601439  0.26717911  0.28714388    -0.20000
C175        C  0.86851001  0.11716097  0.37999083    -0.21100
C176        C  0.90074301  0.14759881  0.38127633    -0.21100
C177        C  0.83369944  0.16820221  0.17522831    -0.21100
C178        C  0.86416879  0.20010226  0.17801743    -0.21100
C179        C  0.81468724  0.09897374  0.34368659    -0.16400
C180        C  0.79390298  0.12603961  0.22119249    -0.16400
C181        C  0.89896874  0.23505554  0.23061495    -0.16400
C182        C  0.92392104  0.20386697  0.34907734    -0.16400
H183        H  0.74109789  0.06954011  0.32651885     0.16500
H184        H  0.73013478  0.08398936  0.26091671     0.16500
H185        H  0.94336042  0.27597822  0.34325178     0.16500
H186        H  0.93069814  0.29268143  0.27944211     0.16500
H187        H  0.85759234  0.09724714  0.40088367     0.14800
H188        H  0.91946380  0.15583915  0.40349787     0.14800
H189        H  0.81664806  0.15854736  0.15163037     0.14800
H190        H  0.87530848  0.21987423  0.15699474     0.14800
H191        H  0.84108580  0.12584910  0.27351432     0.28000
H192        H  0.90082599  0.18525668  0.27656314     0.28000
N193        N  0.29308098  0.09051399  0.21945711    -0.34700
N194        N  0.27486077  0.12874361  0.16994366    -0.55300
N195        N  0.28119539  0.17811207  0.22647901    -0.34700
N196        N  0.29801872  0.13838169  0.27604507    -0.55300
C197        C  0.29877858  0.08073293  0.18663092     0.28900
C198        C  0.31670773  0.08991964  0.24268776     0.28900
C199        C  0.28766172  0.19764251  0.19607281     0.28900
C200        C  0.29571422  0.20071206  0.25454600     0.28900
C201        C  0.26689455  0.10117727  0.14837982     0.37500
C202        C  0.26683431  0.14974046  0.15096670     0.37500
C203        C  0.30550379  0.11716409  0.29533122     0.37500
C204        C  0.29536613  0.15959989  0.30023361     0.37500
C205        C  0.32578077  0.07331322  0.18933100    -0.20000
C206        C  0.33707322  0.07911979  0.22458442    -0.20000
C207        C  0.30471343  0.23276941  0.20540338    -0.20000
C208        C  0.30924144  0.23462443  0.24222421    -0.20000
C209        C  0.25170323  0.10363271  0.11630875    -0.21100
C210        C  0.25253724  0.13495185  0.11759823    -0.21100
C211        C  0.30578810  0.12360781  0.33213887    -0.21100
C212        C  0.29927553  0.15052670  0.33527780    -0.21100
C213        C  0.28104405  0.07930099  0.15394584    -0.16400
C214        C  0.32070610  0.09912817  0.27975465    -0.16400
C215        C  0.29945760  0.19204130  0.29058595    -0.16400
C216        C  0.27986278  0.18494246  0.15997811    -0.16400
H217        H  0.33742790  0.06600015  0.16785254     0.16500
H218        H  0.35861560  0.07659210  0.23525199     0.16500
H219        H  0.31406150  0.25515991  0.18768358     0.16500
H220        H  0.32263205  0.25852445  0.25781116     0.16500
H221        H  0.24420130  0.08649796  0.09302864     0.14800
H222        H  0.24551465  0.14658761  0.09572038     0.14800
H223        H  0.31308032  0.11224874  0.35407045     0.14800
H224        H  0.30070963  0.16408265  0.36015551     0.14800
H225        H  0.27300837  0.09552986  0.22589221     0.28000
H226        H  0.26736549  0.15096305  0.22809363     0.28000
N227        N  0.69519390  0.80807040  0.75113463    -0.34700
N228        N  0.67942535  0.84292238  0.69464582    -0.55300
N229        N  0.69908991  0.89824017  0.74779290    -0.34700
N230        N  0.71846123  0.86533220  0.80458126    -0.55300
C231        C  0.69113256  0.78737801  0.72258312     0.28900
C232        C  0.70716741  0.79763134  0.77928812     0.28900
C233        C  0.69184614  0.91144577  0.71821412     0.28900
C234        C  0.71513322  0.92424703  0.77229446     0.28900
C235        C  0.66364708  0.81035616  0.68074169     0.37500
C236        C  0.66140011  0.85757465  0.68126870     0.37500
C237        C  0.70926019  0.83773753  0.82678253     0.37500
C238        C  0.71452198  0.88865080  0.82447938     0.37500
C239        C  0.70179281  0.76405207  0.73236968    -0.20000
C240        C  0.71157256  0.77030430  0.76840233    -0.20000
C241        C  0.70469151  0.94673825  0.72315263    -0.20000
C242        C  0.71975187  0.95494559  0.75723942    -0.20000
C243        C  0.63693928  0.80505864  0.65685112    -0.21100
C244        C  0.63525113  0.83487926  0.65748848    -0.21100
C245        C  0.70207242  0.84455509  0.86135910    -0.21100
C246        C  0.70534696  0.87675790  0.85994586    -0.21100
C247        C  0.67133149  0.78448125  0.69122944    -0.16400
C248        C  0.70369998  0.80506166  0.81555902    -0.16400
C249        C  0.71479219  0.91830287  0.81004212    -0.16400
C250        C  0.66764315  0.89083096  0.69099790    -0.16400
H251        H  0.69984429  0.74288515  0.71618075     0.16500
H252        H  0.71838897  0.75473836  0.78542186     0.16500
H253        H  0.70104897  0.96400077  0.70526556     0.16500
H254        H  0.72934037  0.97963812  0.77098088     0.16500
H255        H  0.61926687  0.78155584  0.64195641     0.14800
H256        H  0.61618566  0.83884719  0.64289874     0.14800
H257        H  0.69342245  0.82727654  0.88466440     0.14800
H258        H  0.69920025  0.88868668  0.88205748     0.14800
H259        H  0.68287421  0.82253553  0.75404680     0.28000
H260        H  0.68613493  0.87183870  0.75407860     0.28000
O261        O  0.41951169  0.95383372  0.52273147    -0.76600
C262        C  0.45799244  0.92364126  0.42865819     0.84400
O263        O  0.53427284  0.98586766  0.55983223    -0.77700
O264        O  0.56424529  0.01930821  0.43645511    -0.79200
O265        O  0.47852398  0.05691655  0.45362122    -0.79000
O266        O  0.43236566  0.00938895  0.52315255    -0.77600
Zn267      Zn  0.46365690  0.95503421  0.50520887     1.55700
O268        O  0.49860353  0.03619873  0.41061603    -0.79000
Cd269      Cd  0.48242833  0.03748716  0.50241757     1.59700
Cd270      Cd  0.54142714  0.02379036  0.52451984     1.59600
O271        O  0.51281471  0.07987079  0.53797107    -0.79000
O272        O  0.49881176  0.00388861  0.49281753    -1.89500
Cd273      Cd  0.51072458  0.00337547  0.44000152     1.59900
O274        O  0.55340801  0.06787664  0.55639803    -0.79000
O275        O  0.48135715  0.95336930  0.41604024    -0.77600
C276        C  0.51146716  0.95377934  0.56450272     0.84900
C277        C  0.41117116  0.97695737  0.52869533     0.84600
O278        O  0.44898868  0.92073326  0.46203728    -0.76600
C279        C  0.48521618  0.05450066  0.42049441     0.85400
O280        O  0.48332584  0.93783950  0.54540699    -0.76700
C281        C  0.53947884  0.08693879  0.55786296     0.85500
C282        C  0.58912753  0.02994490  0.45993041     0.85800
O283        O  0.58407940  0.03353000  0.49330598    -0.79100
O284        O  0.44668937  0.52892274  0.46473689    -0.76600
C285        C  0.40375978  0.44348791  0.54590878     0.84400
O286        O  0.54296371  0.55039432  0.54530282    -0.77700
O287        O  0.49795539  0.42837006  0.55046001    -0.79200
O288        O  0.46128740  0.43576125  0.42297677    -0.79000
O289        O  0.46356281  0.51147435  0.41664488    -0.77600
Zn290      Zn  0.46129959  0.50996169  0.50863498     1.55700
O291        O  0.44792102  0.40360283  0.47360169    -0.79000
Cd292      Cd  0.48865379  0.48696974  0.44054433     1.59700
Cd293      Cd  0.53610466  0.50926578  0.51535203     1.59600
O294        O  0.54079391  0.51371366  0.42250716    -0.79000
O295        O  0.48743729  0.48663660  0.49507380    -1.89500
Cd296      Cd  0.46585713  0.43843415  0.51572254     1.59900
O297        O  0.57218244  0.52807876  0.47400376    -0.79000
O298        O  0.42089111  0.42762110  0.54302674    -0.77600
C299        C  0.52399461  0.56331769  0.55384634     0.84900
C300        C  0.44863512  0.52700331  0.43027098     0.84600
O301        O  0.41568328  0.47442918  0.53380159    -0.76600
C302        C  0.44657554  0.40630192  0.43926383     0.85400
O303        O  0.49234491  0.55075963  0.54228527    -0.76700
C304        C  0.57023511  0.52837017  0.43952372     0.85500
C305        C  0.52993148  0.44766112  0.56096066     0.85800
O306        O  0.54809800  0.47909750  0.54975623    -0.79100
O307        O  0.47974386  0.92327343  0.03364379    -0.76600
C308        C  0.44685097  0.95603357  0.93435963     0.84400
O309        O  0.58602439  0.01647646  0.97554286    -0.77700
O310        O  0.51871005  0.07206567  0.94638592    -0.79200
O311        O  0.45992007  0.01629213  0.06380612    -0.79000
O312        O  0.47998988  0.95392580  0.08095828    -0.77600
Zn313      Zn  0.49903441  0.95902555  0.99120834     1.55700
O314        O  0.45211812  0.02978944  0.00738727    -0.79000
Cd315      Cd  0.49988391  0.00436734  0.05833530     1.59700
Cd316      Cd  0.56220108  0.04203180  0.99514548     1.59600
O317        O  0.54584860  0.03871840  0.08697686    -0.79000
O318        O  0.51176637  0.00664553  0.00514262    -1.89500
Cd319      Cd  0.48721795  0.02522894  0.97501535     1.59900
O320        O  0.58645029  0.06357531  0.04330010    -0.79000
O321        O  0.45646161  0.98807790  0.93787383    -0.77600
C322        C  0.57529067  0.98499394  0.96692277     0.84900
C323        C  0.47349555  0.92485851  0.06727094     0.84600
O324        O  0.46012709  0.94133851  0.95308481    -0.76600
C325        C  0.44356833  0.02460675  0.04080635     0.85400
O326        O  0.54297625  0.96091904  0.97086786    -0.76700
C327        C  0.57766556  0.05948826  0.07666903     0.85500
C328        C  0.55203370  0.09012826  0.94129527     0.85800
O329        O  0.57252161  0.08190932  0.95740578    -0.79100
O330        O  0.42945853  0.49730937  0.95240380    -0.76600
C331        C  0.45780675  0.53837300  0.06201461     0.84400
O332        O  0.55646190  0.56377228  0.94963970    -0.77700
O333        O  0.54205223  0.51563551  0.07094171    -0.79200
O334        O  0.44786658  0.41410308  0.00608094    -0.79000
O335        O  0.43308601  0.45039405  0.93809572    -0.77600
Zn336      Zn  0.47376282  0.52723697  0.98268759     1.55700
O337        O  0.45900759  0.43850013  0.06103813    -0.79000
Cd338      Cd  0.47284224  0.45325395  0.96877953     1.59700
Cd339      Cd  0.54387248  0.51954100  0.97715426     1.59600
O340        O  0.50544193  0.44278726  0.93547212    -0.79000
O341        O  0.49470789  0.49853252  0.99488631    -1.89500
Cd342      Cd  0.49096049  0.49194699  0.04934092     1.59900
O343        O  0.55758810  0.49005021  0.94396793    -0.79000
O344        O  0.46793762  0.51808023  0.07450346    -0.77600
C345        C  0.54130100  0.58114761  0.94382788     0.84900
C346        C  0.41772538  0.46804217  0.93628751     0.84600
O347        O  0.45910495  0.54424148  0.02787983    -0.76600
C348        C  0.44367390  0.41168385  0.04038048     0.85400
O349        O  0.50986280  0.57072350  0.95469997    -0.76700
C350        C  0.53862393  0.46028298  0.92918603     0.85500
C351        C  0.57213640  0.53324881  0.05539312     0.85800
O352        O  0.57539976  0.53571522  0.02109549    -0.79100
C353        C  0.66754168  0.33576728  0.71328095     0.47300
H354        H  0.66739480  0.33562269  0.68313000    -0.01700
C355        C  0.66747891  0.33548230  0.78372687     0.47400
H356        H  0.66724240  0.33513195  0.81389023    -0.01700
C357        C  0.64897497  0.29850726  0.72945744    -0.15400
C358        C  0.70529072  0.35523708  0.73012363    -0.15100
C359        C  0.64815906  0.35343897  0.72955445    -0.15500
C360        C  0.64935862  0.29833411  0.76693612    -0.15500
C361        C  0.70526308  0.35500326  0.76769894    -0.15000
C362        C  0.64839407  0.35361277  0.76712451    -0.15400
C363        C  0.62827953  0.42115594  0.80734841     0.14600
C364        C  0.60357966  0.40179677  0.83482484     0.01500
C365        C  0.59444172  0.36678049  0.84013821     0.16500
C366        C  0.60914273  0.35143289  0.81839963     0.25900
C367        C  0.63325986  0.37053619  0.79052680    -0.40400
C368        C  0.64301455  0.40577145  0.78559461     0.32900
C369        C  0.58719341  0.41774843  0.85791272     0.01600
F370        F  0.57147351  0.34742183  0.86685113    -0.12700
F371        F  0.66734778  0.42556571  0.76007525    -0.13300
C372        C  0.55018368  0.40224066  0.85999887     0.16500
C373        C  0.53455440  0.41600305  0.88274666     0.25900
C374        C  0.55545115  0.44589498  0.90427512    -0.40400
C375        C  0.59266061  0.46188966  0.90145379     0.32900
C376        C  0.60820822  0.44800955  0.87866240     0.14600
F377        F  0.52895429  0.37383794  0.83941882    -0.12700
F378        F  0.61430081  0.49077098  0.92122562    -0.13300
F379        F  0.49875888  0.40007602  0.88323067    -0.15500
F380        F  0.64399000  0.46371877  0.87768618    -0.14100
F381        F  0.63771559  0.45487935  0.80107220    -0.14100
F382        F  0.59905169  0.31745212  0.82405331    -0.15500
C383        C  0.61097464  0.15825353  0.87013779     0.14600
C384        C  0.59378802  0.17738504  0.86461736     0.01500
C385        C  0.56314966  0.16790706  0.88517220     0.16500
C386        C  0.54979436  0.13988449  0.90998803     0.25900
C387        C  0.56701068  0.12079461  0.91562643    -0.40400
C388        C  0.59807756  0.13071669  0.89556415     0.32900
C389        C  0.60817500  0.20760627  0.83827369     0.01600
F390        F  0.54650159  0.18641985  0.88197450    -0.12700
F391        F  0.61552948  0.11306158  0.89967003    -0.13300
C392        C  0.58634879  0.21006836  0.81161637     0.16500
C393        C  0.59957408  0.23915515  0.78820145     0.25900
C394        C  0.63512808  0.26625461  0.79031418    -0.40400
C395        C  0.65705117  0.26360123  0.81648169     0.32900
C396        C  0.64379084  0.23482207  0.84018235     0.14600
F397        F  0.55209685  0.18419913  0.80809257    -0.12700
F398        F  0.69158508  0.28901131  0.81913669    -0.13300
F399        F  0.57719265  0.24140446  0.76440498    -0.15500
F400        F  0.66566947  0.23418451  0.86585630    -0.14100
F401        F  0.63991006  0.16562808  0.85018464    -0.14100
F402        F  0.52038291  0.13205770  0.92928332    -0.15500
C403        C  0.57830869  0.37132482  0.68871906     0.14600
C404        C  0.59614973  0.39247812  0.65848136     0.01500
C405        C  0.63099359  0.40035705  0.65173962     0.16500
C406        C  0.64781098  0.38811657  0.67498139     0.25900
C407        C  0.63020972  0.36738845  0.70558998    -0.40400
C408        C  0.59495076  0.35867076  0.71173036     0.32900
C409        C  0.57868871  0.40647811  0.63408138     0.01600
F410        F  0.64863670  0.41947571  0.62209167    -0.12700
F411        F  0.57603110  0.33689430  0.73933208    -0.13300
C412        C  0.59415599  0.44265930  0.62840348     0.16500
C413        C  0.57839298  0.45596461  0.60504605     0.25900
C414        C  0.54645630  0.43342868  0.58657452    -0.40400
C415        C  0.53075625  0.39714826  0.59279544     0.32900
C416        C  0.54670124  0.38392452  0.61607382     0.14600
F417        F  0.62443344  0.46533944  0.64608230    -0.12700
F418        F  0.50020799  0.37416614  0.57576385    -0.13300
F419        F  0.59433810  0.49112514  0.60106423    -0.15500
F420        F  0.53125523  0.34883056  0.62024046    -0.14100
F421        F  0.54471153  0.36309525  0.69622852    -0.14100
F422        F  0.68163636  0.39698627  0.66765297    -0.15500
C423        C  0.57454620  0.17911909  0.59632679     0.14600
C424        C  0.58401242  0.17613508  0.63236799     0.01500
C425        C  0.57780515  0.14305514  0.64355777     0.16500
C426        C  0.56385895  0.11450850  0.61935882     0.25900
C427        C  0.55440892  0.11758602  0.58349361    -0.40400
C428        C  0.55943325  0.15018870  0.57255856     0.32900
C429        C  0.60047643  0.20728561  0.65794899     0.01600
F430        F  0.58438760  0.13794974  0.67837996    -0.12700
F431        F  0.55089201  0.15447998  0.53824604    -0.13300
C432        C  0.58607122  0.22917337  0.66180119     0.16500
C433        C  0.60209745  0.25872579  0.68459091     0.25900
C434        C  0.63206092  0.26657726  0.70556651    -0.40400
C435        C  0.64637242  0.24475803  0.70226489     0.32900
C436        C  0.63111931  0.21582113  0.67851438     0.14600
F437        F  0.55586846  0.22161029  0.64410434    -0.12700
F438        F  0.67597188  0.25219635  0.72112513    -0.13300
F439        F  0.58782193  0.27945578  0.68672049    -0.15500
F440        F  0.64717380  0.19683335  0.67476405    -0.14100
F441        F  0.58095921  0.21043716  0.58350050    -0.14100
F442        F  0.55853754  0.08335336  0.63147240    -0.15500
C443        C  0.59660359  0.69411497  0.67001785     0.14600
C444        C  0.60541847  0.68916552  0.63491743     0.01500
C445        C  0.63755405  0.71441268  0.61926365     0.16500
C446        C  0.66033465  0.74491259  0.63835755     0.25900
C447        C  0.65114611  0.75013085  0.67326518    -0.40400
C448        C  0.61932643  0.72445251  0.68909951     0.32900
C449        C  0.58212477  0.65641923  0.61577483     0.01600
F450        F  0.64666690  0.70947042  0.58555604    -0.12700
F451        F  0.60963732  0.72961575  0.72241973    -0.13300
C452        C  0.55770873  0.65431476  0.58972214     0.16500
C453        C  0.53673703  0.62311101  0.57078185     0.25900
C454        C  0.54040559  0.59403479  0.57767437    -0.40400
C455        C  0.56384670  0.59601368  0.60496015     0.32900
C456        C  0.58455239  0.62699299  0.62378750     0.14600
F457        F  0.55486587  0.68264695  0.58212339    -0.12700
F458        F  0.56723196  0.56803044  0.61287588    -0.13300
F459        F  0.51452269  0.62194279  0.54439490    -0.15500
F460        F  0.60781435  0.62865903  0.64919101    -0.14100
F461        F  0.56570266  0.66974423  0.68546476    -0.14100
F462        F  0.69086119  0.76966690  0.62263940    -0.15500
C463        C  0.53994382  0.89407503  0.60247301     0.14600
C464        C  0.56109570  0.91471382  0.63144465     0.01500
C465        C  0.55879534  0.94346013  0.64288637     0.16500
C466        C  0.53838576  0.95360416  0.62331846     0.25900
C467        C  0.52031536  0.93534286  0.59181873    -0.40400
C468        C  0.51945909  0.90429392  0.58271988     0.32900
C469        C  0.58872182  0.90916804  0.64693287     0.01600
F470        F  0.57901815  0.96369863  0.67082680    -0.12700
F471        F  0.50210712  0.88611730  0.55253700    -0.13300
C472        C  0.61717493  0.91420434  0.62512105     0.16500
C473        C  0.64428965  0.91041142  0.63993828     0.25900
C474        C  0.64311434  0.90141887  0.67662192    -0.40400
C475        C  0.61499483  0.89700240  0.69855950     0.32900
C476        C  0.58807996  0.90112078  0.68385921     0.14600
F477        F  0.61869594  0.92293654  0.58953324    -0.12700
F478        F  0.61271352  0.88690867  0.73373901    -0.13300
F479        F  0.67095024  0.91408873  0.61832488    -0.15500
F480        F  0.56089408  0.89634239  0.70533798    -0.14100
F481        F  0.54108391  0.86547358  0.59189264    -0.14100
F482        F  0.53894104  0.98327689  0.63310320    -0.15500
C483        C  0.67172151  0.72786758  0.87935176     0.14600
C484        C  0.63494464  0.71444486  0.87835921     0.01500
C485        C  0.62151292  0.73193589  0.85827424     0.16500
C486        C  0.64432195  0.76174109  0.83853488     0.25900
C487        C  0.68090762  0.77456243  0.83863558    -0.40400
C488        C  0.69463455  0.75787150  0.85952242     0.32900
C489        C  0.61024266  0.68045722  0.89514365     0.01600
F490        F  0.58614025  0.71914459  0.85631603    -0.12700
F491        F  0.72994194  0.77022440  0.86005707    -0.13300
C492        C  0.58524897  0.67722045  0.92102503     0.16500
C493        C  0.56122583  0.64447627  0.93572125     0.25900
C494        C  0.56213873  0.61471681  0.92477101    -0.40400
C495        C  0.58675435  0.61808874  0.89832725     0.32900
C496        C  0.61046418  0.65060134  0.88360958     0.14600
F497        F  0.58483293  0.70589391  0.93276364    -0.12700
F498        F  0.58800317  0.58978087  0.88680826    -0.13300
F499        F  0.53847723  0.64218317  0.96194533    -0.15500
F500        F  0.63348985  0.65289562  0.85769891    -0.14100
F501        F  0.68525829  0.71153980  0.89903197    -0.14100
F502        F  0.63067850  0.77773770  0.81840621    -0.15500
C503        C  0.65104281  0.94059536  0.85183174     0.14600
C504        C  0.66784911  0.95620482  0.88461898     0.01500
C505        C  0.70280589  0.96418536  0.89075333     0.16500
C506        C  0.71979436  0.95451333  0.86510754     0.25900
C507        C  0.70159175  0.93622173  0.83366150    -0.40400
C508        C  0.66738657  0.93009427  0.82702241     0.32900
C509        C  0.64765285  0.96285765  0.91206473     0.01600
F510        F  0.71965236  0.97956528  0.92221855    -0.12700
F511        F  0.64870118  0.91174144  0.79750675    -0.13300
C512        C  0.61443186  0.93537971  0.92322830     0.16500
C513        C  0.59127404  0.94226372  0.94223383     0.25900
C514        C  0.60119912  0.97685126  0.95097023    -0.40400
C515        C  0.63589719  0.00400308  0.94249700     0.32900
C516        C  0.65877185  0.99699470  0.92303624     0.14600
F517        F  0.60370251  0.90190219  0.91396631    -0.12700
F518        F  0.64733987  0.03773382  0.95126515    -0.13300
F519        F  0.55873138  0.91510280  0.95076727    -0.15500
F520        F  0.69081454  0.02391606  0.91271028    -0.14100
F521        F  0.61800601  0.93429530  0.84440487    -0.14100
F522        F  0.75288219  0.96078800  0.87199869    -0.15500
C523        C  0.37687816  0.33979118  0.10242234     0.14600
C524        C  0.36552343  0.31009172  0.08054364     0.01500
C525        C  0.38094979  0.31376244  0.04634710     0.16500
C526        C  0.40731561  0.34647546  0.03408283     0.25900
C527        C  0.41863049  0.37658647  0.05562941    -0.40400
C528        C  0.40314497  0.37277203  0.09009853     0.32900
C529        C  0.33987664  0.27488575  0.09456726     0.01600
F530        F  0.37027549  0.28550276  0.02463252    -0.12700
F531        F  0.41274656  0.40093832  0.11162132    -0.13300
C532        C  0.30580373  0.26638332  0.10575088     0.16500
C533        C  0.28370561  0.23460201  0.12344103     0.25900
C534        C  0.29575999  0.21136428  0.13054614    -0.40400
C535        C  0.32864320  0.21874270  0.11673944     0.32900
C536        C  0.35053176  0.25024613  0.09898354     0.14600
F537        F  0.29471782  0.28956896  0.10117516    -0.12700
F538        F  0.34116722  0.19704870  0.12390501    -0.13300
F539        F  0.25221034  0.22808686  0.13695483    -0.15500
F540        F  0.38343842  0.25796907  0.08887998    -0.14100
F541        F  0.36296028  0.33674513  0.13604608    -0.14100
F542        F  0.42169707  0.34846899  0.00092710    -0.15500
C543        C  0.37554877  0.27005979  0.33549159     0.14600
C544        C  0.35815637  0.28006435  0.36010667     0.01500
C545        C  0.32114548  0.26039191  0.36313223     0.16500
C546        C  0.30162056  0.23099353  0.34114795     0.25900
C547        C  0.31914350  0.22126707  0.31625291    -0.40400
C548        C  0.35620720  0.24074337  0.31383430     0.32900
C549        C  0.37917061  0.31189674  0.38146488     0.01600
F550        F  0.30410633  0.26995711  0.38694716    -0.12700
F551        F  0.37344968  0.23197517  0.28939381    -0.13300
C552        C  0.38421792  0.34377423  0.36863458     0.16500
C553        C  0.40712847  0.37473190  0.38677087     0.25900
C554        C  0.42523193  0.37411626  0.41813596    -0.40400
C555        C  0.41993750  0.34193311  0.43092997     0.32900
C556        C  0.39712268  0.31105954  0.41258380     0.14600
F557        F  0.36718283  0.34486943  0.33829087    -0.12700
F558        F  0.43714164  0.34037941  0.46092001    -0.13300
F559        F  0.41067285  0.40509681  0.37428523    -0.15500
F560        F  0.39270059  0.28031565  0.42495191    -0.14100
F561        F  0.41124375  0.28935984  0.33181449    -0.14100
F562        F  0.26583189  0.21238761  0.34365576    -0.15500
C563        C  0.37210582  0.06163471  0.32362822     0.14600
C564        C  0.40442240  0.09221678  0.33157651     0.01500
C565        C  0.40806216  0.12492996  0.32442120     0.16500
C566        C  0.38004462  0.12699493  0.30928868     0.25900
C567        C  0.34804223  0.09642253  0.30079789    -0.40400
C568        C  0.34417944  0.06374384  0.30826282     0.32900
C569        C  0.43301857  0.08959797  0.34985286     0.01600
F570        F  0.43900394  0.15488156  0.33132941    -0.12700
F571        F  0.31365599  0.03394770  0.29977066    -0.13300
C572        C  0.44447929  0.06758052  0.33606805     0.16500
C573        C  0.46456022  0.05823666  0.35778004     0.25900
C574        C  0.47415428  0.07159581  0.39325124    -0.40400
C575        C  0.46682088  0.09743424  0.40474356     0.32900
C576        C  0.44588427  0.10582253  0.38358094     0.14600
F577        F  0.43435225  0.05345777  0.30242601    -0.12700
F578        F  0.47762912  0.11274276  0.43781990    -0.13300
F579        F  0.47182586  0.03392820  0.34522851    -0.15500
F580        F  0.43560368  0.12740958  0.39765664    -0.14100
F581        F  0.36739343  0.02966757  0.33123837    -0.14100
F582        F  0.38452563  0.15888370  0.30169159    -0.15500
C583        C  0.29858700  0.01487763  0.10904243     0.14600
C584        C  0.32443194  0.03693997  0.08400821     0.01500
C585        C  0.32721065  0.06873877  0.07442466     0.16500
C586        C  0.30876439  0.08110838  0.09409531     0.25900
C587        C  0.28629284  0.06107332  0.12275465    -0.40400
C588        C  0.27875621  0.02648343  0.12758078     0.32900
C589        C  0.35299498  0.03061897  0.07344702     0.01600
F590        F  0.35128713  0.08985092  0.04931840    -0.12700
F591        F  0.25671046  0.00633667  0.15457010    -0.13300
C592        C  0.35679733  0.02349695  0.03732605     0.16500
C593        C  0.38619825  0.02147166  0.02684685     0.25900
C594        C  0.41260673  0.02693725  0.05238993    -0.40400
C595        C  0.40843136  0.03370384  0.08876045     0.32900
C596        C  0.37887378  0.03556859  0.09914258     0.14600
F597        F  0.33210893  0.01874978  0.01216250    -0.12700
F598        F  0.43343705  0.03965965  0.11404038    -0.13300
F599        F  0.38847792  0.01367975  0.99169703    -0.15500
F600        F  0.37617170  0.04359736  0.13407579    -0.14100
F601        F  0.29525458  0.98376871  0.11822158    -0.14100
F602        F  0.31694300  0.11455926  0.08852210    -0.15500
C603        C  0.75425878  0.09988303  0.41300372     0.14600
C604        C  0.72931606  0.06407333  0.41564891     0.01500
C605        C  0.73763193  0.03964751  0.40200184     0.16500
C606        C  0.76887968  0.05101505  0.38239185     0.25900
C607        C  0.79172430  0.08682092  0.37619626    -0.40400
C608        C  0.78541028  0.11118377  0.39358768     0.32900
C609        C  0.69314119  0.05286597  0.42796008     0.01600
F610        F  0.71420102  0.00490525  0.40521217    -0.12700
F611        F  0.80704422  0.14592935  0.38749002    -0.13300
C612        C  0.66481625  0.03704571  0.40331929     0.16500
C613        C  0.63103169  0.02953086  0.41352048     0.25900
C614        C  0.62496509  0.03790784  0.44865923    -0.40400
C615        C  0.65358677  0.05337843  0.47340903     0.32900
C616        C  0.68726780  0.06086960  0.46302097     0.14600
F617        F  0.67018570  0.03002000  0.36883606    -0.12700
F618        F  0.64935494  0.06180524  0.50768262    -0.13300
F619        F  0.60442943  0.01413437  0.38884652    -0.15500
F620        F  0.71436162  0.07632772  0.48715002    -0.14100
F621        F  0.74668132  0.12396128  0.42564902    -0.14100
F622        F  0.77480960  0.02725426  0.36590952    -0.15500
C623        C  0.63325628  0.07435667  0.16047564     0.14600
C624        C  0.66677901  0.09925840  0.14734146     0.01500
C625        C  0.66970423  0.11557421  0.11390672     0.16500
C626        C  0.63984508  0.10494879  0.09230156     0.25900
C627        C  0.60647918  0.07744353  0.10367691    -0.40400
C628        C  0.60318361  0.06360413  0.13890348     0.32900
C629        C  0.69903697  0.10600839  0.16665464     0.01600
F630        F  0.70190296  0.14005779  0.10099731    -0.12700
F631        F  0.57146196  0.03784052  0.15144746    -0.13300
C632        C  0.70801116  0.07990055  0.16829489     0.16500
C633        C  0.73951409  0.08665969  0.18488755     0.25900
C634        C  0.76221904  0.11951191  0.20022430    -0.40400
C635        C  0.75312176  0.14557198  0.19864129     0.32900
C636        C  0.72189623  0.13895339  0.18163942     0.14600
F637        F  0.68643822  0.04805487  0.15334109    -0.12700
F638        F  0.77414056  0.17714757  0.21441139    -0.13300
F639        F  0.74770238  0.06112016  0.18650384    -0.15500
F640        F  0.71363790  0.16445834  0.18025934    -0.14100
F641        F  0.62994442  0.05932014  0.19349191    -0.14100
F642        F  0.64406586  0.12025197  0.05926670    -0.15500
C643        C  0.97902885  0.34526619  0.40614605     0.14600
C644        C  0.97485823  0.32090459  0.43302588     0.01500
C645        C  0.97314595  0.32849346  0.46952621     0.16500
C646        C  0.97476071  0.35954038  0.47917247     0.25900
C647        C  0.97835662  0.38398480  0.45234042    -0.40400
C648        C  0.98083191  0.37653655  0.41565638     0.32900
C649        C  0.96686689  0.28566029  0.42238103     0.01600
F650        F  0.96926775  0.30540828  0.49589679    -0.12700
F651        F  0.98419808  0.39901211  0.38880317    -0.13300
C652        C  0.99020025  0.28113039  0.40022103     0.16500
C653        C  0.97778163  0.25015953  0.38055743     0.25900
C654        C  0.94175606  0.22423344  0.38224825    -0.40400
C655        C  0.92031508  0.22653863  0.40903147     0.32900
C656        C  0.93281597  0.25716985  0.42895052     0.14600
F657        F  0.02363988  0.30800916  0.39454694    -0.12700
F658        F  0.88552487  0.20175927  0.41151080    -0.13300
F659        F  0.99906218  0.24800257  0.35534845    -0.15500
F660        F  0.90995638  0.26070715  0.45072355    -0.14100
F661        F  0.97979496  0.33811357  0.37045567    -0.14100
F662        F  0.97278856  0.36543204  0.51500709    -0.15500
C663        C  0.84841628  0.40375228  0.62879938     0.14600
C664        C  0.82921414  0.42060486  0.63523001     0.01500
C665        C  0.83955218  0.45217421  0.61683931     0.16500
C666        C  0.86812811  0.46631503  0.59237846     0.25900
C667        C  0.88697354  0.44901962  0.58527295    -0.40400
C668        C  0.87655961  0.41747141  0.60403559     0.32900
C669        C  0.79771901  0.40437645  0.65996974     0.01600
F670        F  0.82139631  0.46899755  0.62182288    -0.12700
F671        F  0.89368486  0.39966916  0.59876291    -0.13300
C672        C  0.79458977  0.42309163  0.68912691     0.16500
C673        C  0.76474300  0.40745191  0.71193614     0.25900
C674        C  0.73768906  0.37245435  0.70661758    -0.40400
C675        C  0.74094633  0.35387594  0.67752374     0.32900
C676        C  0.77035982  0.36964296  0.65442208     0.14600
F677        F  0.82064144  0.45643514  0.69583980    -0.12700
F678        F  0.71576189  0.32004318  0.67163823    -0.13300
F679        F  0.76195503  0.42688364  0.73860782    -0.15500
F680        F  0.77177052  0.35098788  0.62605343    -0.14100
F681        F  0.84019982  0.37396881  0.64698089    -0.14100
F682        F  0.87710089  0.49692969  0.57559053    -0.15500
C683        C  0.88580982  0.30796788  0.19787268     0.14600
C684        C  0.91850818  0.33059423  0.18145172     0.01500
C685        C  0.94538973  0.32224876  0.18227324     0.16500
C686        C  0.93910759  0.29104919  0.19819217     0.25900
C687        C  0.90585163  0.26780218  0.21297224    -0.40400
C688        C  0.87944632  0.27666824  0.21332852     0.32900
C689        C  0.92319107  0.36079980  0.16015345     0.01600
F690        F  0.97718063  0.34362037  0.16644580    -0.12700
F691        F  0.84756436  0.25496596  0.22884376    -0.13300
C692        C  0.95119666  0.39468532  0.16745980     0.16500
C693        C  0.95797022  0.42223744  0.14408387     0.25900
C694        C  0.93690633  0.41614655  0.11292116    -0.40400
C695        C  0.90761292  0.38256672  0.10700272     0.32900
C696        C  0.90085906  0.35516161  0.13039331     0.14600
F697        F  0.97282771  0.40078489  0.19637306    -0.12700
F698        F  0.88650931  0.37584128  0.07749828    -0.13300
F699        F  0.98690185  0.45412304  0.15028832    -0.15500
F700        F  0.87387501  0.32252905  0.12253706    -0.14100
F701        F  0.85997085  0.31612403  0.19856797    -0.14100
F702        F  0.96515108  0.28318024  0.19875023    -0.15500
C703        C  0.76998914  0.40715584  0.84435734     0.14600
C704        C  0.79737711  0.39986658  0.83972474     0.01500
C705        C  0.79443374  0.37772242  0.81092539     0.16500
C706        C  0.76491835  0.36333180  0.78741324     0.25900
C707        C  0.73761278  0.37088540  0.79190967    -0.40400
C708        C  0.74054302  0.39281385  0.82093493     0.32900
C709        C  0.82871027  0.41542743  0.86504613     0.01600
F710        F  0.82039228  0.37027977  0.80528994    -0.12700
F711        F  0.71501061  0.40087218  0.82643067    -0.13300
C712        C  0.83686334  0.39414406  0.88642511     0.16500
C713        C  0.86512017  0.40887726  0.91148298     0.25900
C714        C  0.88626321  0.44549154  0.91586510    -0.40400
C715        C  0.87830996  0.46669219  0.89376812     0.32900
C716        C  0.85005180  0.45187167  0.86887517     0.14600
F717        F  0.81685482  0.35886276  0.88371364    -0.12700
F718        F  0.89778244  0.50203780  0.89612439    -0.13300
F719        F  0.87161205  0.38706299  0.93146090    -0.15500
F720        F  0.84376829  0.47336007  0.84804610    -0.14100
F721        F  0.77144286  0.42780942  0.87216290    -0.14100
F722        F  0.76262574  0.34118899  0.76087404    -0.15500
C723        C  0.90269051  0.55811128  0.38416232     0.14600
C724        C  0.92401818  0.57586512  0.35414473     0.01500
C725        C  0.95228957  0.57119177  0.34499866     0.16500
C726        C  0.96049993  0.55065749  0.36691470     0.25900
C727        C  0.94050845  0.53460903  0.39832659    -0.40400
C728        C  0.91080458  0.53756189  0.40606450     0.32900
C729        C  0.91824889  0.60128625  0.33433219     0.01600
F730        F  0.97292872  0.58785593  0.31579600    -0.12700
F731        F  0.89079759  0.52217047  0.43601716    -0.13300
C732        C  0.94478041  0.63682601  0.33381074     0.16500
C733        C  0.93820739  0.66141374  0.31775590     0.25900
C734        C  0.90504193  0.65068804  0.30247945    -0.40400
C735        C  0.87878018  0.61516622  0.30232763     0.32900
C736        C  0.88538233  0.59056882  0.31808028     0.14600
F737        F  0.97657026  0.64779045  0.34988033    -0.12700
F738        F  0.84680006  0.60444953  0.28679557    -0.13300
F739        F  0.96386817  0.69564789  0.31745768    -0.15500
F740        F  0.85974225  0.55630238  0.31760909    -0.14100
F741        F  0.87549914  0.56267206  0.39374985    -0.14100
F742        F  0.98989816  0.54917911  0.35922574    -0.15500
C743        C  0.96167724  0.70531947  0.09592274     0.14600
C744        C  0.93657160  0.67369352  0.07972568     0.01500
C745        C  0.90049304  0.66209482  0.08303738     0.16500
C746        C  0.88942817  0.67938007  0.10617793     0.25900
C747        C  0.91441756  0.70855475  0.12612712    -0.40400
C748        C  0.95063428  0.72289434  0.11893481     0.32900
C749        C  0.94694880  0.64860992  0.06799808     0.01600
F750        F  0.87592192  0.63145088  0.06774265    -0.12700
F751        F  0.97514232  0.75091159  0.13804743    -0.13300
C752        C  0.95281010  0.62950093  0.09459065     0.16500
C753        C  0.95994627  0.60350976  0.08475596     0.25900
C754        C  0.96138568  0.59599236  0.04785013    -0.40400
C755        C  0.95547707  0.61545453  0.02112789     0.32900
C756        C  0.94814950  0.64142207  0.03124821     0.14600
F757        F  0.95072714  0.63549423  0.13037069    -0.12700
F758        F  0.95686210  0.60961247  0.98516621    -0.13300
F759        F  0.96507011  0.58557650  0.11161433    -0.15500
F760        F  0.94212892  0.65947837  0.00524589    -0.14100
F761        F  0.99671093  0.71690121  0.09269596    -0.14100
F762        F  0.85434634  0.66466390  0.11314360    -0.15500
C763        C  0.64143705  0.59551480  0.37886632     0.14600
C764        C  0.67063961  0.59278451  0.38957624     0.01500
C765        C  0.66590638  0.56670509  0.41429975     0.16500
C766        C  0.63263869  0.54451703  0.42930533     0.25900
C767        C  0.60357051  0.54778819  0.41936105    -0.40400
C768        C  0.60799814  0.57294788  0.39346225     0.32900
C769        C  0.70573442  0.61626319  0.37374050     0.01600
F770        F  0.69372116  0.56334918  0.42454649    -0.12700
F771        F  0.58039526  0.57686917  0.38375658    -0.13300
C772        C  0.72306328  0.65252409  0.37960957     0.16500
C773        C  0.75434701  0.67493784  0.36098626     0.25900
C774        C  0.76858277  0.66114906  0.33673646    -0.40400
C775        C  0.75239322  0.62479098  0.33264569     0.32900
C776        C  0.72106485  0.60250152  0.35088074     0.14600
F777        F  0.70910596  0.66614224  0.40254732    -0.12700
F778        F  0.76557270  0.61114315  0.30873816    -0.13300
F779        F  0.76985520  0.71000247  0.36524573    -0.15500
F780        F  0.70446802  0.56763384  0.34445041    -0.14100
F781        F  0.64541105  0.62012016  0.35435295    -0.14100
F782        F  0.62878551  0.51995707  0.45381244    -0.15500
C783        C  0.63514977  0.59468820  0.12629300     0.14600
C784        C  0.66757787  0.60724198  0.10825028     0.01500
C785        C  0.66857290  0.59237254  0.07516661     0.16500
C786        C  0.63765308  0.56588574  0.05976023     0.25900
C787        C  0.60472986  0.55430137  0.07663924    -0.40400
C788        C  0.60381174  0.56837601  0.11053739     0.32900
C789        C  0.70094025  0.63477661  0.12419375     0.01600
F790        F  0.69956717  0.60438296  0.05709338    -0.12700
F791        F  0.57258694  0.55819750  0.12739897    -0.13300
C792        C  0.72788608  0.62754699  0.13150055     0.16500
C793        C  0.75953824  0.65295310  0.14680693     0.25900
C794        C  0.76452238  0.68581582  0.15578932    -0.40400
C795        C  0.73834677  0.69379484  0.14699063     0.32900
C796        C  0.70653942  0.66827373  0.13127184     0.14600
F797        F  0.72275707  0.59517741  0.12554085    -0.12700
F798        F  0.74264952  0.72524907  0.15609493    -0.13300
F799        F  0.78427871  0.64452972  0.15576262    -0.15500
F800        F  0.68097272  0.67590619  0.12374961    -0.14100
F801        F  0.63382935  0.60813440  0.15890001    -0.14100
F802        F  0.63991700  0.55256723  0.02740490    -0.15500
C803        C  0.25880586  0.89933141  0.60520369     0.14600
C804        C  0.27498378  0.93287032  0.58983147     0.01500
C805        C  0.26193233  0.95511745  0.59798538     0.16500
C806        C  0.23535228  0.94520178  0.62400904     0.25900
C807        C  0.22148676  0.91288499  0.64153061    -0.40400
C808        C  0.23196367  0.88927964  0.63062132     0.32900
C809        C  0.30906448  0.94638642  0.57103650     0.01600
F810        F  0.27672275  0.98732374  0.58266795    -0.12700
F811        F  0.21902467  0.85804660  0.64778641    -0.13300
C812        C  0.31215335  0.92887666  0.54085007     0.16500
C813        C  0.34552147  0.93862904  0.52698886     0.25900
C814        C  0.37600612  0.96626403  0.54291672    -0.40400
C815        C  0.37282071  0.98433864  0.57240392     0.32900
C816        C  0.33963646  0.97430625  0.58655722     0.14600
F817        F  0.28289907  0.90203078  0.52528844    -0.12700
F818        F  0.40204133  0.01065386  0.58862576    -0.13300
F819        F  0.34807964  0.92144011  0.49784000    -0.15500
F820        F  0.33750754  0.99059875  0.61673965    -0.14100
F821        F  0.27158240  0.87778374  0.59865861    -0.14100
F822        F  0.22499787  0.96794420  0.63400938    -0.15500
C823        C  0.09876142  0.75124874  0.60213108     0.14600
C824        C  0.06410637  0.72258265  0.60181020     0.01500
C825        C  0.03781507  0.72377386  0.62241889     0.16500
C826        C  0.04693212  0.75183656  0.64576179     0.25900
C827        C  0.08242136  0.77845213  0.64910411    -0.40400
C828        C  0.10795457  0.77887540  0.62582404     0.32900
C829        C  0.05659172  0.69002332  0.58361634     0.01600
F830        F  0.00410172  0.69633472  0.62257797    -0.12700
F831        F  0.14251028  0.80424397  0.62869691    -0.13300
C832        C  0.07578602  0.67379279  0.59338953     0.16500
C833        C  0.06812264  0.64231535  0.57735822     0.25900
C834        C  0.04072401  0.62625661  0.55172149    -0.40400
C835        C  0.02161827  0.64265781  0.54191557     0.32900
C836        C  0.02962594  0.67434216  0.55764030     0.14600
F837        F  0.10107327  0.68776894  0.61957572    -0.12700
F838        F  0.99519133  0.62810011  0.51695938    -0.13300
F839        F  0.08633321  0.62675440  0.58825987    -0.15500
F840        F  0.01106123  0.68974902  0.54749221    -0.14100
F841        F  0.12426617  0.75122533  0.58142070    -0.14100
F842        F  0.02201174  0.75119587  0.66796957    -0.15500
C843        C  0.38853665  0.93362255  0.85290830     0.14600
C844        C  0.35536080  0.91280375  0.86918131     0.01500
C845        C  0.35318505  0.90104994  0.90498967     0.16500
C846        C  0.38395111  0.91223785  0.92531867     0.25900
C847        C  0.41706567  0.93540162  0.90999852    -0.40400
C848        C  0.41931538  0.94513184  0.87336282     0.32900
C849        C  0.32320845  0.90720072  0.85079426     0.01600
F850        F  0.32121556  0.88139792  0.92120222    -0.12700
F851        F  0.45115281  0.96766298  0.85826878    -0.13300
C852        C  0.29791299  0.87392553  0.83842461     0.16500
C853        C  0.26673988  0.86861088  0.82249672     0.25900
C854        C  0.26027665  0.89639440  0.81944034    -0.40400
C855        C  0.28557935  0.92967341  0.83186101     0.32900
C856        C  0.31701061  0.93509686  0.84733705     0.14600
F857        F  0.30373087  0.84684382  0.84128345    -0.12700
F858        F  0.27994544  0.95682971  0.82848800    -0.13300
F859        F  0.24320050  0.83659490  0.80911618    -0.15500
F860        F  0.34129974  0.96744731  0.85935230    -0.14100
F861        F  0.39092896  0.94448423  0.81798019    -0.14100
F862        F  0.38121165  0.90370942  0.96109174    -0.15500
C863        C  0.14122340  0.71910609  0.84997020     0.14600
C864        C  0.10744732  0.69345846  0.86151395     0.01500
C865        C  0.07877926  0.69889160  0.85725093     0.16500
C866        C  0.08359431  0.72907654  0.84035944     0.25900
C867        C  0.11715356  0.75426564  0.82778701    -0.40400
C868        C  0.14601562  0.74924911  0.83294466     0.32900
C869        C  0.10131340  0.66042406  0.87721494     0.01600
F870        F  0.04600976  0.67464918  0.86908005    -0.12700
F871        F  0.17847421  0.77280748  0.81989723    -0.13300
C872        C  0.11658760  0.66007027  0.91065467     0.16500
C873        C  0.10397916  0.62865010  0.92953032     0.25900
C874        C  0.07558678  0.59776695  0.91531478    -0.40400
C875        C  0.06325608  0.59764180  0.88012453     0.32900
C876        C  0.07636222  0.62880677  0.86097807     0.14600
F877        F  0.14099018  0.69038941  0.92662989    -0.12700
F878        F  0.03640795  0.56778630  0.86566408    -0.13300
F879        F  0.11638864  0.62914221  0.96347945    -0.15500
F880        F  0.06265761  0.62857130  0.82780923    -0.14100
F881        F  0.16914315  0.71423308  0.85375644    -0.14100
F882        F  0.05538009  0.73323174  0.83508511    -0.15500
C883        C  0.24757277  0.37825250  0.62222966     0.14600
C884        C  0.26475426  0.36143541  0.60833803     0.01500
C885        C  0.25026763  0.32548075  0.61482622     0.16500
C886        C  0.22089909  0.30739989  0.63750856     0.25900
C887        C  0.20539435  0.32490694  0.65343533    -0.40400
C888        C  0.21799762  0.36006165  0.64453019     0.32900
C889        C  0.30009672  0.38231603  0.59154600     0.01600
F890        F  0.26576785  0.30840075  0.60076904    -0.12700
F891        F  0.20351586  0.37752643  0.66001935    -0.13300
C892        C  0.32914653  0.38213896  0.60734614     0.16500
C893        C  0.36294832  0.40267972  0.59289852     0.25900
C894        C  0.36855013  0.42444386  0.56287276    -0.40400
C895        C  0.33965136  0.42515759  0.54733616     0.32900
C896        C  0.30558052  0.40399807  0.56141395     0.14600
F897        F  0.32490227  0.36258893  0.63737978    -0.12700
F898        F  0.34415171  0.44513348  0.51760415    -0.13300
F899        F  0.39039443  0.40165768  0.60860434    -0.15500
F900        F  0.27785670  0.40411492  0.54521954    -0.14100
F901        F  0.26123184  0.41300082  0.61685547    -0.14100
F902        F  0.20891900  0.27344041  0.64580834    -0.15500
C903        C  0.34809331  0.41022685  0.87009619     0.14600
C904        C  0.31729944  0.40295216  0.88884373     0.01500
C905        C  0.32003111  0.42231498  0.92007537     0.16500
C906        C  0.35334016  0.44685877  0.93375820     0.25900
C907        C  0.38407721  0.45185447  0.91653457    -0.40400
C908        C  0.38118793  0.43422787  0.88400461     0.32900
C909        C  0.28267976  0.37484562  0.87559702     0.01600
F910        F  0.29060973  0.41586957  0.93855884    -0.12700
F911        F  0.41057514  0.43892585  0.86674789    -0.13300
C912        C  0.27695388  0.34106644  0.86959716     0.16500
C913        C  0.24655342  0.31603045  0.85150341     0.25900
C914        C  0.22135697  0.32435011  0.84001108    -0.40400
C915        C  0.22592210  0.35723063  0.84819020     0.32900
C916        C  0.25646166  0.38239129  0.86570679     0.14600
F917        F  0.30151948  0.33287588  0.87997914    -0.12700
F918        F  0.20191585  0.36577683  0.83665230    -0.13300
F919        F  0.24258669  0.28449948  0.84341624    -0.15500
F920        F  0.26157308  0.41487550  0.87055799    -0.14100
F921        F  0.34610584  0.39322916  0.83881377    -0.14100
F922        F  0.35551274  0.46324144  0.96553922    -0.15500
C923        C  0.05216144  0.44320830  0.65585483     0.14600
C924        C  0.07977784  0.43786157  0.64587861     0.01500
C925        C  0.10225132  0.45711839  0.61706559     0.16500
C926        C  0.09449969  0.47835223  0.59565986     0.25900
C927        C  0.06418603  0.48020244  0.60299919    -0.40400
C928        C  0.04427444  0.46415270  0.63442106     0.32900
C929        C  0.08154229  0.40849962  0.66179506     0.01600
F930        F  0.12934706  0.45247479  0.60736891    -0.12700
F931        F  0.01512213  0.46604023  0.64228908    -0.13300
C932        C  0.05302107  0.37419471  0.65687811     0.16500
C933        C  0.05406825  0.34600734  0.67209460     0.25900
C934        C  0.08377710  0.35191818  0.69190432    -0.40400
C935        C  0.11260886  0.38607836  0.69615816     0.32900
C936        C  0.11146671  0.41427513  0.68123080     0.14600
F937        F  0.02430590  0.36810192  0.63711198    -0.12700
F938        F  0.14139818  0.39200358  0.71570538    -0.13300
F939        F  0.02617372  0.31310782  0.66783488    -0.15500
F940        F  0.13908368  0.44718330  0.68641399    -0.14100
F941        F  0.03106831  0.42577974  0.68455978    -0.14100
F942        F  0.11379215  0.49328751  0.56521938    -0.15500
C943        C  0.09500240  0.35442208  0.91438712     0.14600
C944        C  0.06002276  0.34697230  0.91729249     0.01500
C945        C  0.03264687  0.31674809  0.90079391     0.16500
C946        C  0.04059904  0.29607324  0.87889942     0.25900
C947        C  0.07604562  0.30615755  0.87231275    -0.40400
C948        C  0.10304732  0.33432388  0.89186273     0.32900
C949        C  0.05263399  0.37273219  0.93383747     0.01600
F950        F  0.99867847  0.30939343  0.90265824    -0.12700
F951        F  0.13755269  0.34492659  0.88589745    -0.13300
C952        C  0.06859926  0.40687165  0.91967277     0.16500
C953        C  0.06030030  0.43085446  0.93392097     0.25900
C954        C  0.03546439  0.42081015  0.96206257    -0.40400
C955        C  0.01992391  0.38687168  0.97652937     0.32900
C956        C  0.02853341  0.36304471  0.96257010     0.14600
F957        F  0.09116470  0.41654322  0.89107826    -0.12700
F958        F  0.99669845  0.37693493  0.00453287    -0.13300
F959        F  0.07525259  0.46330740  0.91910464    -0.15500
F960        F  0.01337490  0.33048900  0.97708903    -0.14100
F961        F  0.12168357  0.38285602  0.93111040    -0.14100
F962        F  0.01421431  0.26920406  0.86005431    -0.15500
C963        C  0.21676085  0.58536501  0.17854386     0.14600
C964        C  0.20161554  0.60581639  0.16987673     0.01500
C965        C  0.21812537  0.64023032  0.18337497     0.16500
C966        C  0.24952015  0.65408659  0.20391107     0.25900
C967        C  0.26531377  0.63403380  0.21118807    -0.40400
C968        C  0.24811562  0.59926811  0.19900455     0.32900
C969        C  0.16952921  0.59152577  0.14576331     0.01600
F970        F  0.20443119  0.66083495  0.17580083    -0.12700
F971        F  0.26130999  0.57843618  0.20740852    -0.13300
C972        C  0.13844858  0.59072089  0.15683439     0.16500
C973        C  0.10848306  0.57684312  0.13400365     0.25900
C974        C  0.10870322  0.56322562  0.09938222    -0.40400
C975        C  0.14011358  0.56443139  0.08842194     0.32900
C976        C  0.16991565  0.57838451  0.11117415     0.14600
F977        F  0.13676368  0.60270047  0.19018775    -0.12700
F978        F  0.14226773  0.55197798  0.05551785    -0.13300
F979        F  0.07929564  0.57681644  0.14599120    -0.15500
F980        F  0.19961128  0.57954232  0.09898312    -0.14100
F981        F  0.20088705  0.55161152  0.16749255    -0.14100
F982        F  0.26461307  0.68723318  0.21665225    -0.15500
C983        C  0.23173379  0.64213795  0.33749888     0.14600
C984        C  0.21044873  0.60571048  0.34236403     0.01500
C985        C  0.21926502  0.58400121  0.32284643     0.16500
C986        C  0.24839939  0.59829273  0.29905264     0.25900
C987        C  0.26940587  0.63463864  0.29395886    -0.40400
C988        C  0.26087901  0.65640218  0.31364715     0.32900
C989        C  0.17878650  0.59032858  0.36713209     0.01600
F990        F  0.20007727  0.54884482  0.32748042    -0.12700
F991        F  0.28059204  0.69157434  0.30942892    -0.13300
C992        C  0.14469279  0.56766224  0.35338071     0.16500
C993        C  0.11486000  0.55328679  0.37617785     0.25900
C994        C  0.11806841  0.56097027  0.41379974    -0.40400
C995        C  0.15244516  0.58367701  0.42753081     0.32900
C996        C  0.18226857  0.59814149  0.40451339     0.14600
F997        F  0.14010389  0.55987778  0.31742557    -0.12700
F998        F  0.15746360  0.59186209  0.46336815    -0.13300
F999        F  0.08271675  0.53189904  0.36099954    -0.15500
F1000       F  0.21479659  0.61934297  0.41898734    -0.14100
F1001       F  0.22384758  0.66393869  0.35533988    -0.14100
F1002       F  0.25661520  0.57655530  0.28167855    -0.15500
C1003       C  0.42579519  0.56242598  0.14861166     0.14600
C1004       C  0.41800476  0.58756368  0.13575864     0.01500
C1005       C  0.42420069  0.59707191  0.09888109     0.16500
C1006       C  0.43726059  0.58148584  0.07520508     0.25900
C1007       C  0.44439407  0.55557177  0.08764370    -0.40400
C1008       C  0.43865402  0.54654542  0.12496265     0.32900
C1009       C  0.40224658  0.60304046  0.16022725     0.01600
F1010       F  0.41782625  0.62187658  0.08575290    -0.12700
F1011       F  0.44490996  0.52187171  0.13872133    -0.13300
C1012       C  0.42199779  0.62608201  0.18846406     0.16500
C1013       C  0.40732129  0.64149277  0.21027711     0.25900
C1014       C  0.37202491  0.63340903  0.20529654    -0.40400
C1015       C  0.35263480  0.61072478  0.17658182     0.32900
C1016       C  0.36748002  0.59574394  0.15448485     0.14600
F1017       F  0.45601793  0.63465782  0.19414384    -0.12700
F1018       F  0.31909425  0.60282648  0.16973243    -0.13300
F1019       F  0.42844352  0.66585905  0.23490209    -0.15500
F1020       F  0.34766227  0.57372411  0.12743722    -0.14100
F1021       F  0.42008650  0.55253944  0.18403378    -0.14100
F1022       F  0.44305137  0.59210180  0.04001653    -0.15500
C1023       C  0.40958533  0.58188971  0.39580295     0.14600
C1024       C  0.40633879  0.57529646  0.35821952     0.01500
C1025       C  0.41604263  0.55189344  0.34452563     0.16500
C1026       C  0.42949448  0.53614127  0.36771989     0.25900
C1027       C  0.43338433  0.54313773  0.40548986    -0.40400
C1028       C  0.42268268  0.56596984  0.41912492     0.32900
C1029       C  0.39406991  0.59391510  0.33348077     0.01600
F1030       F  0.41337503  0.54493741  0.30840093    -0.12700
F1031       F  0.42531942  0.57348643  0.45509479    -0.13300
C1032       C  0.41363654  0.63057355  0.33079212     0.16500
C1033       C  0.40198097  0.64851636  0.30868235     0.25900
C1034       C  0.37018124  0.63039720  0.28899362    -0.40400
C1035       C  0.35096865  0.59364526  0.29090295     0.32900
C1036       C  0.36284029  0.57557676  0.31277301     0.14600
F1037       F  0.44466477  0.64905613  0.34903287    -0.12700
F1038       F  0.32047122  0.57523409  0.27180973    -0.13300
F1039       F  0.42296368  0.68353782  0.30491237    -0.15500
F1040       F  0.34338601  0.54018954  0.31436985    -0.14100
F1041       F  0.39983452  0.60381027  0.41006808    -0.14100
F1042       F  0.43863044  0.51393680  0.35297012    -0.15500
C1043       C  0.42756863  0.79305047  0.18774373     0.14600
C1044       C  0.40922242  0.79795904  0.15900131     0.01500
C1045       C  0.37373056  0.77165382  0.15305870     0.16500
C1046       C  0.35698110  0.74168858  0.17539818     0.25900
C1047       C  0.37500637  0.73719530  0.20475024    -0.40400
C1048       C  0.41079311  0.76310965  0.21015192     0.32900
C1049       C  0.42678929  0.83047034  0.13555143     0.01600
F1050       F  0.35481794  0.77539964  0.12606862    -0.12700
F1051       F  0.42995007  0.75903090  0.23661900    -0.13300
C1052       C  0.42899182  0.82835002  0.09753061     0.16500
C1053       C  0.44440653  0.85865201  0.07555939     0.25900
C1054       C  0.45803628  0.89228914  0.09084838    -0.40400
C1055       C  0.45613547  0.89425828  0.12907845     0.32900
C1056       C  0.44093176  0.86393490  0.15096052     0.14600
F1057       F  0.41653648  0.79675766  0.08153133    -0.12700
F1058       F  0.46904870  0.92565701  0.14563202    -0.18700
F1059       F  0.44545030  0.85478083  0.03911285    -0.15500
F1060       F  0.43926384  0.86731101  0.18741535    -0.14100
F1061       F  0.46215851  0.81696601  0.19366567    -0.14100
F1062       F  0.32264518  0.71749070  0.16882870    -0.15500
C1063       C  0.43459097  0.86499490  0.34403136     0.14600
C1064       C  0.41120670  0.83151360  0.35802623     0.01500
C1065       C  0.40228959  0.82859121  0.39509545     0.16500
C1066       C  0.41687789  0.85820779  0.41776631     0.25900
C1067       C  0.44116981  0.89189142  0.40411338    -0.40400
C1068       C  0.44934545  0.89469009  0.36661212     0.32900
C1069       C  0.39719945  0.79956217  0.33445277     0.01600
F1070       F  0.37909319  0.79684479  0.40942581    -0.12700
F1071       F  0.47188908  0.92622106  0.35150529    -0.13300
C1072       C  0.40424212  0.77294368  0.34325884     0.16500
C1073       C  0.39123825  0.74287694  0.32165666     0.25900
C1074       C  0.37132814  0.73858421  0.28993304    -0.40400
C1075       C  0.36337849  0.76490250  0.28171730     0.32900
C1076       C  0.37647490  0.79510179  0.30341828     0.14600
F1077       F  0.42431392  0.77625113  0.37275705    -0.12700
F1078       F  0.34144379  0.76073520  0.25371146    -0.13300
F1079       F  0.39835944  0.71799391  0.33216819    -0.15500
F1080       F  0.36791259  0.81953438  0.29472100    -0.14100
F1081       F  0.44405090  0.86889016  0.30849414    -0.14100
F1082       F  0.40720794  0.85360154  0.45325079    -0.15500
loop_ 
_geom_bond_atom_site_label_1 
_geom_bond_atom_site_label_2 
_geom_bond_distance 
_geom_bond_site_symmetry_2 
_ccdc_geom_bond_type 
C1            H2   1.110       .  S
C1            C7   1.555       .  S
C1            C6   1.558       .  S
C1            C5   1.557       .  S
C3            H4   1.110       .  S
C3            C9   1.543       .  S
C3            C8   1.557       .  S
C3           C10   1.556       .  S
C5            C8   1.389       .  D
C5         C1047   1.518       .  S
C6            C9   1.375       .  D
C6          C967   1.501       .  S
C7           C10   1.381       .  D
C7         C1014   1.517       .  S
C8         C1074   1.518       .  S
C9          C987   1.504       .  S
C10        C1034   1.504       .  S
N11          C16   1.352       .  A
N11          C15   1.354       .  A
N11          H43   1.042       .  S
N12          C19   1.349       .  A
N12          C20   1.346       .  A
N13          C18   1.354       .  A
N13          C17   1.353       .  A
N13          H44   1.042       .  S
N14          C21   1.346       .  A
N14          C22   1.349       .  A
C15          C23   1.390       .  A
C15          C31   1.416       .  A
C16          C32   1.409       .  A
C16          C24   1.386       .  A
C17          C25   1.388       .  A
C17          C34   1.413       .  A
C18          C33   1.414       .  A
C18          C26   1.387       .  A
C19          C31   1.408       .  A
C19          C27   1.386       .  A
C20          C34   1.402       .  A
C20          C28   1.386       .  A
C21          C29   1.386       .  A
C21          C32   1.401       .  A
C22          C30   1.385       .  A
C22          C33   1.405       .  A
C23          C24   1.365       .  A
C23          H35   1.081       .  S
C24          H36   1.082       .  S
C25          C26   1.370       .  A
C25          H37   1.082       .  S
C26          H38   1.082       .  S
C27          C28   1.374       .  A
C27          H39   1.082       .  S
C28          H40   1.083       .  S
C29          C30   1.372       .  A
C29          H41   1.082       .  S
C30          H42   1.082       .  S
C31         C947   1.486       .  S
C32         C934   1.473       .  S
C33         C887   1.483       .  S
C34         C914   1.477       .  S
N45          C50   1.353       .  A
N45          C49   1.353       .  A
N45          H77   1.043       .  S
N46          C53   1.347       .  A
N46          C54   1.347       .  A
N47          C52   1.352       .  A
N47          C51   1.353       .  A
N47          H78   1.042       .  S
N48          C55   1.347       .  A
N48          C56   1.347       .  A
C49          C57   1.386       .  A
C49          C65   1.410       .  A
C50          C66   1.416       .  A
C50          C58   1.390       .  A
C51          C59   1.386       .  A
C51          C68   1.410       .  A
C52          C67   1.414       .  A
C52          C60   1.389       .  A
C53          C65   1.404       .  A
C53          C61   1.386       .  A
C54          C68   1.404       .  A
C54          C62   1.386       .  A
C55          C63   1.387       .  A
C55          C66   1.405       .  A
C56          C64   1.385       .  A
C56          C67   1.402       .  A
C57          C58   1.369       .  A
C57          H69   1.082       .  S
C58          H70   1.081       .  S
C59          C60   1.369       .  A
C59          H71   1.082       .  S
C60          H72   1.082       .  S
C61          C62   1.372       .  A
C61          H73   1.083       .  S
C62          H74   1.083       .  S
C63          C64   1.372       .  A
C63          H75   1.083       .  S
C64          H76   1.082       .  S
C65         C867   1.481       .  S
C66         C827   1.482       .  S
C67         C807   1.477       .  S
C68         C854   1.479       .  S
N79          C84   1.353       .  A
N79          C83   1.355       .  A
N79         H111   1.040       .  S
N80          C87   1.350       .  A
N80          C88   1.347       .  A
N81          C86   1.355       .  A
N81          C85   1.354       .  A
N81         H112   1.041       .  S
N82          C89   1.348       .  A
N82          C90   1.350       .  A
C83          C91   1.387       .  A
C83          C99   1.413       .  A
C84         C100   1.414       .  A
C84          C92   1.389       .  A
C85          C93   1.385       .  A
C85         C102   1.409       .  A
C86         C101   1.418       .  A
C86          C94   1.390       .  A
C87          C99   1.405       .  A
C87          C95   1.385       .  A
C88         C102   1.405       .  A
C88          C96   1.386       .  A
C89          C97   1.385       .  A
C89         C100   1.404       .  A
C90          C98   1.386       .  A
C90         C101   1.409       .  A
C91          C92   1.364       .  A
C91         H103   1.082       .  S
C92         H104   1.081       .  S
C93          C94   1.365       .  A
C93         H105   1.082       .  S
C94         H106   1.080       .  S
C95          C96   1.370       .  A
C95         H107   1.083       .  S
C96         H108   1.083       .  S
C97          C98   1.373       .  A
C97         H109   1.083       .  S
C98         H110   1.083       .  S
C99         C774   1.481       .  S
C100        C794   1.478       .  S
C101        C747   1.487       .  S
C102        C734   1.475       .  S
O113        C129   1.272       .  A
O113       Zn119   2.009       .  S
C114        C974   1.509       .  S
C114        O130   1.275       .  A
C114        O127   1.277       .  A
O115        C128   1.274   1_655  A
O115       Cd122   2.053   1_556  S
O116        C134   1.277       .  A
O116       Cd125   2.076       .  S
O117        C131   1.274       .  A
O117       Cd121   2.059   1_554  S
O118        C129   1.272       .  A
O118       Cd121   2.038   1_455  S
Zn119       O130   2.040   1_556  S
Zn119       O132   2.012       .  S
Zn119       O124   1.955   1_456  S
O120        C131   1.279       .  A
O120       Cd125   2.081       .  S
Cd121       O123   2.092       .  S
Cd121       O124   1.989   1_556  S
Cd122       O126   2.115   1_554  S
Cd122       O135   2.053       .  S
Cd122       O124   1.997       .  S
O123        C133   1.276       .  A
O124       Cd125   2.008       .  S
Cd125       O127   2.108   1_655  S
O126        C133   1.279       .  A
C128        C954   1.469       .  S
C128        O132   1.275       .  A
C129        C874   1.460       .  S
C131        C754   1.489       .  S
C133        C714   1.512       .  S
C134        C694   1.476       .  S
C134        O135   1.275       .  A
O136        C152   1.281       .  A
O136       Zn142   2.084       .  S
C137        C834   1.475       .  S
C137        O153   1.278       .  A
C137        O150   1.271   1_455  A
O138        C151   1.270       .  A
O138       Cd145   2.018   1_455  S
O139        C157   1.275       .  A
O139       Cd148   2.098       .  S
O140        C154   1.278       .  A
O140       Cd144   2.075   1_655  S
O141        C152   1.276       .  A
O141       Cd144   2.092       .  S
Zn142       O153   2.039       .  S
Zn142       O155   2.040       .  S
Zn142       O147   1.969       .  S
O143        C154   1.273       .  A
O143       Cd148   2.035       .  S
Cd144       O146   2.088   1_455  S
Cd144       O147   2.005       .  S
Cd145       O149   2.040       .  S
Cd145       O158   2.080       .  S
Cd145       O147   1.977   1_655  S
O146        C156   1.278       .  A
O147       Cd148   1.992   1_455  S
Cd148       O150   2.034       .  S
O149        C156   1.272       .  A
C151        C927   1.463       .  S
C151        O155   1.277       .  A
C152        C994   1.514       .  S
C154        C727   1.470       .  S
C156        C647   1.487       .  S
C157        C667   1.505       .  S
C157        O158   1.273       .  A
N159        C164   1.356       .  A
N159        C163   1.353       .  A
N159        H191   1.042       .  S
N160        C167   1.347       .  A
N160        C168   1.350       .  A
N161        C166   1.354       .  A
N161        C165   1.352       .  A
N161        H192   1.043       .  S
N162        C169   1.348       .  A
N162        C170   1.347       .  A
C163        C171   1.391       .  A
C163        C179   1.418       .  A
C164        C180   1.412       .  A
C164        C172   1.385       .  A
C165        C173   1.390       .  A
C165        C182   1.417       .  A
C166        C181   1.406       .  A
C166        C174   1.384       .  A
C167        C179   1.405       .  A
C167        C175   1.385       .  A
C168        C182   1.408       .  A
C168        C176   1.386       .  A
C169        C177   1.386       .  A
C169        C180   1.406       .  A
C170        C178   1.385       .  A
C170        C181   1.403       .  A
C171        C172   1.366       .  A
C171        H183   1.081       .  S
C172        H184   1.082       .  S
C173        C174   1.365       .  A
C173        H185   1.079       .  S
C174        H186   1.082       .  S
C175        C176   1.374       .  A
C175        H187   1.083       .  S
C176        H188   1.082       .  S
C177        C178   1.372       .  A
C177        H189   1.083       .  S
C178        H190   1.083       .  S
C179        C607   1.480       .  S
C180        C634   1.484       .  S
C181        C687   1.478       .  S
C182        C654   1.485       .  S
N193        C198   1.354       .  A
N193        C197   1.353       .  A
N193        H225   1.043       .  S
N194        C201   1.351       .  A
N194        C202   1.348       .  A
N195        C200   1.355       .  A
N195        C199   1.354       .  A
N195        H226   1.041       .  S
N196        C203   1.348       .  A
N196        C204   1.348       .  A
C197        C205   1.388       .  A
C197        C213   1.416       .  A
C198        C214   1.411       .  A
C198        C206   1.386       .  A
C199        C207   1.390       .  A
C199        C216   1.417       .  A
C200        C215   1.413       .  A
C200        C208   1.386       .  A
C201        C213   1.412       .  A
C201        C209   1.386       .  A
C202        C216   1.408       .  A
C202        C210   1.385       .  A
C203        C211   1.385       .  A
C203        C214   1.405       .  A
C204        C212   1.387       .  A
C204        C215   1.406       .  A
C205        C206   1.366       .  A
C205        H217   1.081       .  S
C206        H218   1.082       .  S
C207        C208   1.366       .  A
C207        H219   1.081       .  S
C208        H220   1.082       .  S
C209        C210   1.377       .  A
C209        H221   1.082       .  S
C210        H222   1.082       .  S
C211        C212   1.372       .  A
C211        H223   1.083       .  S
C212        H224   1.082       .  S
C213        C587   1.493       .  S
C214        C567   1.484       .  S
C215        C547   1.480       .  S
C216        C534   1.485       .  S
N227        C232   1.346       .  A
N227        C231   1.350       .  A
N227        H259   1.037       .  S
N228        C235   1.350       .  A
N228        C236   1.349       .  A
N229        C234   1.350       .  A
N229        C233   1.348       .  A
N229        H260   1.037       .  S
N230        C237   1.353       .  A
N230        C238   1.354       .  A
C231        C239   1.386       .  A
C231        C247   1.410       .  A
C232        C248   1.404       .  A
C232        C240   1.386       .  A
C233        C241   1.385       .  A
C233        C250   1.408       .  A
C234        C249   1.413       .  A
C234        C242   1.389       .  A
C235        C247   1.408       .  A
C235        C243   1.386       .  A
C236        C250   1.409       .  A
C236        C244   1.387       .  A
C237        C245   1.384       .  A
C237        C248   1.410       .  A
C238        C246   1.389       .  A
C238        C249   1.416       .  A
C239        C240   1.378       .  A
C239        H251   1.082       .  S
C240        H252   1.082       .  S
C241        C242   1.378       .  A
C241        H253   1.082       .  S
C242        H254   1.083       .  S
C243        C244   1.367       .  A
C243        H255   1.082       .  S
C244        H256   1.082       .  S
C245        C246   1.367       .  A
C245        H257   1.083       .  S
C246        H258   1.081       .  S
C247        C447   1.477       .  S
C248        C487   1.476       .  S
C249        C507   1.486       .  S
C250        C474   1.476       .  S
O261        C277   1.276       .  A
O261       Zn267   2.022       .  S
C262       C1067   1.517       .  S
C262        O278   1.278       .  A
C262        O275   1.279       .  A
O263        C276   1.271       .  A
O263       Cd270   2.021   1_565  S
O264        C282   1.280       .  A
O264       Cd273   2.087       .  S
O265        C279   1.273       .  A
O265       Cd269   2.036       .  S
O266        C277   1.273   1_545  A
O266       Cd269   2.046       .  S
Zn267       O278   2.069       .  S
Zn267       O280   2.046       .  S
Zn267       O272   1.974   1_565  S
O268        C279   1.279       .  A
O268       Cd273   2.091       .  S
Cd269       O271   2.120       .  S
Cd269       O272   1.996       .  S
Cd270       O274   2.113       .  S
Cd270       O283   2.051       .  S
Cd270       O272   1.990       .  S
O271        C281   1.277       .  A
O272       Cd273   2.019       .  S
Cd273       O275   2.116   1_545  S
O274        C281   1.276       .  A
C276        C467   1.468       .  S
C276        O280   1.277       .  A
C277        C814   1.464       .  S
C279        C574   1.480       .  S
C281        C427   1.508       .  S
C282        C614   1.488       .  S
C282        O283   1.274       .  A
O284        C300   1.278       .  A
O284       Zn290   2.068       .  S
C285        C894   1.473       .  S
C285        O301   1.277       .  A
C285        O298   1.273       .  A
O286        C299   1.272       .  A
O286       Cd293   2.027       .  S
O287        C305   1.277       .  A
O287       Cd296   2.112       .  S
O288        C302   1.277       .  A
O288       Cd292   2.067       .  S
O289        C300   1.276       .  A
O289       Cd292   2.097       .  S
Zn290       O301   2.037       .  S
Zn290       O303   2.043       .  S
Zn290       O295   1.968       .  S
O291        C302   1.274       .  A
O291       Cd296   2.048       .  S
Cd292       O294   2.082       .  S
Cd292       O295   2.008       .  S
Cd293       O297   2.046       .  S
Cd293       O306   2.096       .  S
Cd293       O295   1.987       .  S
O294        C304   1.277       .  A
O295       Cd296   2.000       .  S
Cd296       O298   2.047       .  S
O297        C304   1.273       .  A
C299        C454   1.469       .  S
C299        O303   1.279       .  A
C300       C1027   1.511       .  S
C302        C554   1.473       .  S
C304        C767   1.468       .  S
C305        C414   1.510       .  S
C305        O306   1.275       .  A
O307        C323   1.279       .  A
O307       Zn313   2.076   1_554  S
C308        C847   1.461       .  S
C308        O324   1.276       .  A
C308        O321   1.271       .  A
O309        C322   1.271   1_545  A
O309       Cd316   2.034       .  S
O310        C328   1.276       .  A
O310       Cd319   2.104       .  S
O311        C325   1.279       .  A
O311       Cd315   2.089       .  S
O312        C323   1.279       .  A
O312       Cd315   2.119   1_565  S
Zn313       O324   2.034       .  S
Zn313       O326   2.035       .  S
Zn313       O318   1.966   1_566  S
O314        C325   1.273       .  A
O314       Cd319   2.043   1_554  S
Cd315       O317   2.093       .  S
Cd315       O318   2.017       .  S
Cd316       O320   2.039   1_556  S
Cd316       O329   2.111       .  S
Cd316       O318   1.993   1_556  S
O317        C327   1.280       .  A
O318       Cd319   1.994   1_554  S
Cd319       O321   2.039   1_545  S
O320        C327   1.273       .  A
C322        C514   1.483       .  S
C322        O326   1.279       .  A
C323       C1054   1.519       .  S
C325        C594   1.481       .  S
C327        C627   1.483       .  S
C328        C387   1.506       .  S
C328        O329   1.276       .  A
O330        C346   1.278       .  A
O330       Zn336   2.041       .  S
C331       C1007   1.514       .  S
C331        O347   1.278       .  A
C331        O344   1.278       .  A
O332        C345   1.270       .  A
O332       Cd339   2.022       .  S
O333        C351   1.279       .  A
O333       Cd342   2.091       .  S
O334        C348   1.273       .  A
O334       Cd338   2.042   1_554  S
O335        C346   1.272       .  A
O335       Cd338   2.028       .  S
Zn336       O347   2.066   1_556  S
Zn336       O349   2.047       .  S
Zn336       O341   1.969       .  S
O337        C348   1.281       .  A
O337       Cd342   2.100       .  S
Cd338       O340   2.114       .  S
Cd338       O341   1.986       .  S
Cd339       O343   2.098       .  S
Cd339       O352   2.009   1_556  S
Cd339       O341   1.979       .  S
O340        C350   1.277       .  A
O341       Cd342   2.020   1_556  S
Cd342       O344   2.109       .  S
O343        C350   1.274       .  A
C345        C494   1.472       .  S
C345        O349   1.278       .  A
C346        C907   1.465       .  S
C348        C527   1.487       .  S
C350        C374   1.513       .  S
C351        C787   1.474       .  S
C351        O352   1.269       .  A
C353        H354   1.110       .  S
C353        C359   1.547       .  S
C353        C358   1.556       .  S
C353        C357   1.545       .  S
C355        H356   1.111       .  S
C355        C361   1.547       .  S
C355        C360   1.553       .  S
C355        C362   1.554       .  S
C357        C360   1.380       .  D
C357        C434   1.508       .  S
C358        C361   1.384       .  D
C358        C674   1.502       .  S
C359        C362   1.383       .  D
C359        C407   1.510       .  S
C360        C394   1.502       .  S
C361        C707   1.513       .  S
C362        C367   1.507       .  S
C363        C364   1.411       .  A
C363        C368   1.410       .  A
C363        F381   1.357       .  S
C364        C365   1.411       .  A
C364        C369   1.508       .  S
C365        C366   1.408       .  A
C365        F370   1.357       .  S
C366        C367   1.408       .  A
C366        F382   1.357       .  S
C367        C368   1.411       .  A
C368        F371   1.358       .  S
C369        C372   1.409       .  A
C369        C376   1.409       .  A
C372        C373   1.409       .  A
C372        F377   1.358       .  S
C373        C374   1.414       .  A
C373        F379   1.357       .  S
C374        C375   1.417       .  A
C375        C376   1.411       .  A
C375        F378   1.358       .  S
C376        F380   1.358       .  S
C383        C384   1.411       .  A
C383        C388   1.410       .  A
C383        F401   1.358       .  S
C384        C385   1.410       .  A
C384        C389   1.509       .  S
C385        C386   1.409       .  A
C385        F390   1.358       .  S
C386        C387   1.412       .  A
C386        F402   1.357       .  S
C387        C388   1.412       .  A
C388        F391   1.358       .  S
C389        C392   1.413       .  A
C389        C396   1.411       .  A
C392        C393   1.409       .  A
C392        F397   1.357       .  S
C393        C394   1.408       .  A
C393        F399   1.357       .  S
C394        C395   1.408       .  A
C395        C396   1.406       .  A
C395        F398   1.358       .  S
C396        F400   1.357       .  S
C403        C404   1.409       .  A
C403        C408   1.409       .  A
C403        F421   1.357       .  S
C404        C405   1.409       .  A
C404        C409   1.505       .  S
C405        C406   1.407       .  A
C405        F410   1.358       .  S
C406        C407   1.411       .  A
C406        F422   1.358       .  S
C407        C408   1.412       .  A
C408        F411   1.357       .  S
C409        C412   1.408       .  A
C409        C416   1.409       .  A
C412        C413   1.408       .  A
C412        F417   1.358       .  S
C413        C414   1.415       .  A
C413        F419   1.358       .  S
C414        C415   1.414       .  A
C415        C416   1.410       .  A
C415        F418   1.357       .  S
C416        F420   1.357       .  S
C423        C424   1.416       .  A
C423        C428   1.413       .  A
C423        F441   1.357       .  S
C424        C425   1.414       .  A
C424        C429   1.522       .  S
C425        C426   1.412       .  A
C425        F430   1.357       .  S
C426        C427   1.410       .  A
C426        F442   1.358       .  S
C427        C428   1.410       .  A
C428        F431   1.357       .  S
C429        C432   1.415       .  A
C429        C436   1.417       .  A
C432        C433   1.411       .  A
C432        F437   1.357       .  S
C433        C434   1.407       .  A
C433        F439   1.358       .  S
C434        C435   1.407       .  A
C435        C436   1.413       .  A
C435        F438   1.357       .  S
C436        F440   1.357       .  S
C443        C444   1.400       .  A
C443        C448   1.394       .  A
C443        F461   1.358       .  S
C444        C445   1.405       .  A
C444        C449   1.467       .  S
C445        C446   1.399       .  A
C445        F450   1.358       .  S
C446        C447   1.403       .  A
C446        F462   1.357       .  S
C447        C448   1.405       .  A
C448        F451   1.358       .  S
C449        C452   1.405       .  A
C449        C456   1.398       .  A
C452        C453   1.401       .  A
C452        F457   1.358       .  S
C453        C454   1.406       .  A
C453        F459   1.358       .  S
C454        C455   1.408       .  A
C455        C456   1.391       .  A
C455        F458   1.359       .  S
C456        F460   1.358       .  S
C463        C464   1.406       .  A
C463        C468   1.400       .  A
C463        F481   1.358       .  S
C464        C465   1.400       .  A
C464        C469   1.471       .  S
C465        C466   1.391       .  A
C465        F470   1.358       .  S
C466        C467   1.407       .  A
C466        F482   1.359       .  S
C467        C468   1.405       .  A
C468        F471   1.358       .  S
C469        C472   1.407       .  A
C469        C476   1.402       .  A
C472        C473   1.396       .  A
C472        F477   1.358       .  S
C473        C474   1.401       .  A
C473        F479   1.357       .  S
C474        C475   1.406       .  A
C475        C476   1.394       .  A
C475        F478   1.357       .  S
C476        F480   1.358       .  S
C483        C484   1.410       .  A
C483        C488   1.399       .  A
C483        F501   1.358       .  S
C484        C485   1.402       .  A
C484        C489   1.474       .  S
C485        C486   1.391       .  A
C485        F490   1.358       .  S
C486        C487   1.406       .  A
C486        F502   1.359       .  S
C487        C488   1.400       .  A
C488        F491   1.357       .  S
C489        C492   1.407       .  A
C489        C496   1.401       .  A
C492        C493   1.400       .  A
C492        F497   1.358       .  S
C493        C494   1.406       .  A
C493        F499   1.358       .  S
C494        C495   1.408       .  A
C495        C496   1.391       .  A
C495        F498   1.358       .  S
C496        F500   1.358       .  S
C503        C504   1.401       .  A
C503        C508   1.385       .  A
C503        F521   1.359       .  S
C504        C505   1.408       .  A
C504        C509   1.474       .  S
C505        C506   1.403       .  A
C505        F510   1.358       .  S
C506        C507   1.407       .  A
C506        F522   1.357       .  S
C507        C508   1.406       .  A
C508        F511   1.356       .  S
C509        C512   1.406       .  A
C509        C516   1.399       .  A
C512        C513   1.394       .  A
C512        F517   1.359       .  S
C513        C514   1.408       .  A
C513        F519   1.358       .  S
C514        C515   1.416   1_565  A
C515        C516   1.396   1_545  A
C515        F518   1.358       .  S
C516        F520   1.358   1_565  S
C523        C524   1.406       .  A
C523        C528   1.402       .  A
C523        F541   1.358       .  S
C524        C525   1.401       .  A
C524        C529   1.480       .  S
C525        C526   1.395       .  A
C525        F530   1.358       .  S
C526        C527   1.414       .  A
C526        F542   1.358       .  S
C527        C528   1.410       .  A
C528        F531   1.358       .  S
C529        C532   1.408       .  A
C529        C536   1.404       .  A
C532        C533   1.402       .  A
C532        F537   1.358       .  S
C533        C534   1.406       .  A
C533        F539   1.357       .  S
C534        C535   1.405       .  A
C535        C536   1.393       .  A
C535        F538   1.358       .  S
C536        F540   1.358       .  S
C543        C544   1.399       .  A
C543        C548   1.391       .  A
C543        F561   1.358       .  S
C544        C545   1.405       .  A
C544        C549   1.466       .  S
C545        C546   1.401       .  A
C545        F550   1.358       .  S
C546        C547   1.403       .  A
C546        F562   1.357       .  S
C547        C548   1.405       .  A
C548        F551   1.358       .  S
C549        C552   1.401       .  A
C549        C556   1.401       .  A
C552        C553   1.395       .  A
C552        F557   1.358       .  S
C553        C554   1.409       .  A
C553        F559   1.358       .  S
C554        C555   1.409       .  A
C555        C556   1.396       .  A
C555        F558   1.358       .  S
C556        F560   1.358       .  S
C563        C564   1.409       .  A
C563        C568   1.396       .  A
C563        F581   1.358       .  S
C564        C565   1.406       .  A
C564        C569   1.480       .  S
C565        C566   1.396       .  A
C565        F570   1.358       .  S
C566        C567   1.406       .  A
C566        F582   1.358       .  S
C567        C568   1.402       .  A
C568        F571   1.358       .  S
C569        C572   1.407       .  A
C569        C576   1.403       .  A
C572        C573   1.400       .  A
C572        F577   1.358       .  S
C573        C574   1.408       .  A
C573        F579   1.358       .  S
C574        C575   1.410       .  A
C575        C576   1.392       .  A
C575        F578   1.358       .  S
C576        F580   1.358       .  S
C583        C584   1.403       .  A
C583        C588   1.399       .  A
C583        F601   1.358   1_545  S
C584        C585   1.401       .  A
C584        C589   1.474       .  S
C585        C586   1.395       .  A
C585        F590   1.358       .  S
C586        C587   1.409       .  A
C586        F602   1.357       .  S
C587        C588   1.411       .  A
C588        F591   1.358       .  S
C589        C592   1.398       .  A
C589        C596   1.406       .  A
C592        C593   1.396       .  A
C592        F597   1.358       .  S
C593        C594   1.414       .  A
C593        F599   1.358   1_554  S
C594        C595   1.406       .  A
C595        C596   1.398       .  A
C595        F598   1.358       .  S
C596        F600   1.358       .  S
C603        C604   1.404       .  A
C603        C608   1.393       .  A
C603        F621   1.358       .  S
C604        C605   1.407       .  A
C604        C609   1.476       .  S
C605        C606   1.400       .  A
C605        F610   1.357       .  S
C606        C607   1.403       .  A
C606        F622   1.357       .  S
C607        C608   1.406       .  A
C608        F611   1.359       .  S
C609        C612   1.405       .  A
C609        C616   1.400       .  A
C612        C613   1.398       .  A
C612        F617   1.358       .  S
C613        C614   1.411       .  A
C613        F619   1.358       .  S
C614        C615   1.415       .  A
C615        C616   1.396       .  A
C615        F618   1.358       .  S
C616        F620   1.358       .  S
C623        C624   1.403       .  A
C623        C628   1.400       .  A
C623        F641   1.358       .  S
C624        C625   1.400       .  A
C624        C629   1.473       .  S
C625        C626   1.394       .  A
C625        F630   1.358       .  S
C626        C627   1.412       .  A
C626        F642   1.358       .  S
C627        C628   1.410       .  A
C628        F631   1.358       .  S
C629        C632   1.406       .  A
C629        C636   1.402       .  A
C632        C633   1.398       .  A
C632        F637   1.358       .  S
C633        C634   1.403       .  A
C633        F639   1.357       .  S
C634        C635   1.408       .  A
C635        C636   1.395       .  A
C635        F638   1.358       .  S
C636        F640   1.358       .  S
C643        C644   1.407       .  A
C643        C648   1.399       .  A
C643        F661   1.358       .  S
C644        C645   1.398       .  A
C644        C649   1.476       .  S
C645        C646   1.394       .  A
C645        F650   1.358       .  S
C646        C647   1.416       .  A
C646        F662   1.358       .  S
C647        C648   1.410       .  A
C648        F651   1.358       .  S
C649        C652   1.406       .  A
C649        C656   1.404       .  A
C652        C653   1.400       .  A
C652        F657   1.358   1_655  S
C653        C654   1.407       .  A
C653        F659   1.358       .  S
C654        C655   1.406       .  A
C655        C656   1.393       .  A
C655        F658   1.358       .  S
C656        F660   1.358       .  S
C663        C664   1.407       .  A
C663        C668   1.403       .  A
C663        F681   1.358       .  S
C664        C665   1.409       .  A
C664        C669   1.501       .  S
C665        C666   1.408       .  A
C665        F670   1.358       .  S
C666        C667   1.415       .  A
C666        F682   1.358       .  S
C667        C668   1.414       .  A
C668        F671   1.358       .  S
C669        C672   1.410       .  A
C669        C676   1.408       .  A
C672        C673   1.408       .  A
C672        F677   1.358       .  S
C673        C674   1.411       .  A
C673        F679   1.357       .  S
C674        C675   1.407       .  A
C675        C676   1.402       .  A
C675        F678   1.357       .  S
C676        F680   1.358       .  S
C683        C684   1.404       .  A
C683        C688   1.394       .  A
C683        F701   1.358       .  S
C684        C685   1.408       .  A
C684        C689   1.476       .  S
C685        C686   1.398       .  A
C685        F690   1.358       .  S
C686        C687   1.401       .  A
C686        F702   1.358       .  S
C687        C688   1.404       .  A
C688        F691   1.358       .  S
C689        C692   1.404       .  A
C689        C696   1.404       .  A
C692        C693   1.399       .  A
C692        F697   1.358       .  S
C693        C694   1.410       .  A
C693        F699   1.358       .  S
C694        C695   1.406       .  A
C695        C696   1.394       .  A
C695        F698   1.358       .  S
C696        F700   1.358       .  S
C703        C704   1.409       .  A
C703        C708   1.408       .  A
C703        F721   1.358       .  S
C704        C705   1.410       .  A
C704        C709   1.507       .  S
C705        C706   1.412       .  A
C705        F710   1.358       .  S
C706        C707   1.412       .  A
C706        F722   1.357       .  S
C707        C708   1.411       .  A
C708        F711   1.357       .  S
C709        C712   1.409       .  A
C709        C716   1.407       .  A
C712        C713   1.411       .  A
C712        F717   1.357       .  S
C713        C714   1.415       .  A
C713        F719   1.357       .  S
C714        C715   1.416       .  A
C715        C716   1.407       .  A
C715        F718   1.358       .  S
C716        F720   1.358       .  S
C723        C724   1.404       .  A
C723        C728   1.393       .  A
C723        F741   1.358       .  S
C724        C725   1.403       .  A
C724        C729   1.471       .  S
C725        C726   1.395       .  A
C725        F730   1.358       .  S
C726        C727   1.407       .  A
C726        F742   1.358       .  S
C727        C728   1.408       .  A
C728        F731   1.358       .  S
C729        C732   1.408       .  A
C729        C736   1.403       .  A
C732        C733   1.396       .  A
C732        F737   1.358       .  S
C733        C734   1.399       .  A
C733        F739   1.357       .  S
C734        C735   1.404       .  A
C735        C736   1.392       .  A
C735        F738   1.358       .  S
C736        F740   1.358       .  S
C743        C744   1.405       .  A
C743        C748   1.400       .  A
C743        F761   1.358       .  S
C744        C745   1.401       .  A
C744        C749   1.472       .  S
C745        C746   1.394       .  A
C745        F750   1.358       .  S
C746        C747   1.407       .  A
C746        F762   1.358       .  S
C747        C748   1.406       .  A
C748        F751   1.358       .  S
C749        C752   1.402       .  A
C749        C756   1.399       .  A
C752        C753   1.394       .  A
C752        F757   1.358       .  S
C753        C754   1.410       .  A
C753        F759   1.358       .  S
C754        C755   1.417       .  A
C755        C756   1.401       .  A
C755        F758   1.358   1_554  S
C756        F760   1.358       .  S
C763        C764   1.405       .  A
C763        C768   1.398       .  A
C763        F781   1.358       .  S
C764        C765   1.403       .  A
C764        C769   1.473       .  S
C765        C766   1.396       .  A
C765        F770   1.358       .  S
C766        C767   1.406       .  A
C766        F782   1.358       .  S
C767        C768   1.405       .  A
C768        F771   1.358       .  S
C769        C772   1.407       .  A
C769        C776   1.402       .  A
C772        C773   1.400       .  A
C772        F777   1.358       .  S
C773        C774   1.402       .  A
C773        F779   1.357       .  S
C774        C775   1.405       .  A
C775        C776   1.393       .  A
C775        F778   1.358       .  S
C776        F780   1.358       .  S
C783        C784   1.406       .  A
C783        C788   1.400       .  A
C783        F801   1.358       .  S
C784        C785   1.400       .  A
C784        C789   1.471       .  S
C785        C786   1.388       .  A
C785        F790   1.358       .  S
C786        C787   1.410       .  A
C786        F802   1.359       .  S
C787        C788   1.408       .  A
C788        F791   1.358       .  S
C789        C792   1.402       .  A
C789        C796   1.407       .  A
C792        C793   1.389       .  A
C792        F797   1.359       .  S
C793        C794   1.405       .  A
C793        F799   1.359       .  S
C794        C795   1.403       .  A
C795        C796   1.400       .  A
C795        F798   1.357       .  S
C796        F800   1.358       .  S
C803        C804   1.403       .  A
C803        C808   1.391       .  A
C803        F821   1.359       .  S
C804        C805   1.408       .  A
C804        C809   1.473       .  S
C805        C806   1.399       .  A
C805        F810   1.357       .  S
C806        C807   1.400       .  A
C806        F822   1.357       .  S
C807        C808   1.405       .  A
C808        F811   1.359       .  S
C809        C812   1.406       .  A
C809        C816   1.405       .  A
C812        C813   1.398       .  A
C812        F817   1.358       .  S
C813        C814   1.405       .  A
C813        F819   1.358       .  S
C814        C815   1.403       .  A
C815        C816   1.392       .  A
C815        F818   1.358   1_565  S
C816        F820   1.358       .  S
C823        C824   1.403       .  A
C823        C828   1.391       .  A
C823        F841   1.358       .  S
C824        C825   1.408       .  A
C824        C829   1.475       .  S
C825        C826   1.398       .  A
C825        F830   1.358       .  S
C826        C827   1.403       .  A
C826        F842   1.358       .  S
C827        C828   1.407       .  A
C828        F831   1.358       .  S
C829        C832   1.408       .  A
C829        C836   1.401       .  A
C832        C833   1.396       .  A
C832        F837   1.358       .  S
C833        C834   1.405       .  A
C833        F839   1.358       .  S
C834        C835   1.411       .  A
C835        C836   1.395       .  A
C835        F838   1.358   1_455  S
C836        F840   1.358       .  S
C843        C844   1.403       .  A
C843        C848   1.397       .  A
C843        F861   1.358       .  S
C844        C845   1.402       .  A
C844        C849   1.468       .  S
C845        C846   1.396       .  A
C845        F850   1.358       .  S
C846        C847   1.404       .  A
C846        F862   1.358       .  S
C847        C848   1.404       .  A
C848        F851   1.358       .  S
C849        C852   1.400       .  A
C849        C856   1.406       .  A
C852        C853   1.394       .  A
C852        F857   1.358       .  S
C853        C854   1.407       .  A
C853        F859   1.357       .  S
C854        C855   1.401       .  A
C855        C856   1.396       .  A
C855        F858   1.357       .  S
C856        F860   1.358       .  S
C863        C864   1.400       .  A
C863        C868   1.395       .  A
C863        F881   1.358       .  S
C864        C865   1.408       .  A
C864        C869   1.470       .  S
C865        C866   1.394       .  A
C865        F870   1.358       .  S
C866        C867   1.401       .  A
C866        F882   1.358       .  S
C867        C868   1.408       .  A
C868        F871   1.357       .  S
C869        C872   1.405       .  A
C869        C876   1.403       .  A
C872        C873   1.397       .  A
C872        F877   1.358       .  S
C873        C874   1.405       .  A
C873        F879   1.358       .  S
C874        C875   1.402       .  A
C875        C876   1.391       .  A
C875        F878   1.358       .  S
C876        F880   1.358       .  S
C883        C884   1.405       .  A
C883        C888   1.396       .  A
C883        F901   1.358       .  S
C884        C885   1.408       .  A
C884        C889   1.480       .  S
C885        C886   1.398       .  A
C885        F890   1.358       .  S
C886        C887   1.401       .  A
C886        F902   1.357       .  S
C887        C888   1.406       .  A
C888        F891   1.358       .  S
C889        C892   1.406       .  A
C889        C896   1.406       .  A
C892        C893   1.394       .  A
C892        F897   1.358       .  S
C893        C894   1.405       .  A
C893        F899   1.358       .  S
C894        C895   1.407       .  A
C895        C896   1.401       .  A
C895        F898   1.358       .  S
C896        F900   1.358       .  S
C903        C904   1.404       .  A
C903        C908   1.391       .  A
C903        F921   1.358       .  S
C904        C905   1.407       .  A
C904        C909   1.476       .  S
C905        C906   1.400       .  A
C905        F910   1.358       .  S
C906        C907   1.405       .  A
C906        F922   1.358       .  S
C907        C908   1.404       .  A
C908        F911   1.358       .  S
C909        C912   1.410       .  A
C909        C916   1.402       .  A
C912        C913   1.398       .  A
C912        F917   1.358       .  S
C913        C914   1.399       .  A
C913        F919   1.357       .  S
C914        C915   1.406       .  A
C915        C916   1.393       .  A
C915        F918   1.358       .  S
C916        F920   1.358       .  S
C923        C924   1.401       .  A
C923        C928   1.391       .  A
C923        F941   1.359       .  S
C924        C925   1.405       .  A
C924        C929   1.468       .  S
C925        C926   1.398       .  A
C925        F930   1.358       .  S
C926        C927   1.404       .  A
C926        F942   1.358       .  S
C927        C928   1.406       .  A
C928        F931   1.359       .  S
C929        C932   1.409       .  A
C929        C936   1.400       .  A
C932        C933   1.395       .  A
C932        F937   1.358       .  S
C933        C934   1.397       .  A
C933        F939   1.357       .  S
C934        C935   1.407       .  A
C935        C936   1.393       .  A
C935        F938   1.358       .  S
C936        F940   1.358       .  S
C943        C944   1.403       .  A
C943        C948   1.394       .  A
C943        F961   1.358       .  S
C944        C945   1.406       .  A
C944        C949   1.476       .  S
C945        C946   1.398       .  A
C945        F950   1.358   1_455  S
C946        C947   1.406       .  A
C946        F962   1.358       .  S
C947        C948   1.408       .  A
C948        F951   1.358       .  S
C949        C952   1.408       .  A
C949        C956   1.402       .  A
C952        C953   1.397       .  A
C952        F957   1.358       .  S
C953        C954   1.404       .  A
C953        F959   1.359       .  S
C954        C955   1.406       .  A
C955        C956   1.395       .  A
C955        F958   1.358   1_456  S
C956        F960   1.357       .  S
C963        C964   1.410       .  A
C963        C968   1.406       .  A
C963        F981   1.358       .  S
C964        C965   1.411       .  A
C964        C969   1.505       .  S
C965        C966   1.409       .  A
C965        F970   1.357       .  S
C966        C967   1.407       .  A
C966        F982   1.357       .  S
C967        C968   1.406       .  A
C968        F971   1.356       .  S
C969        C972   1.410       .  A
C969        C976   1.407       .  A
C972        C973   1.411       .  A
C972        F977   1.358       .  S
C973        C974   1.416       .  A
C973        F979   1.358       .  S
C974        C975   1.414       .  A
C975        C976   1.404       .  A
C975        F978   1.357       .  S
C976        F980   1.358       .  S
C983        C984   1.410       .  A
C983        C988   1.410       .  A
C983       F1001   1.357       .  S
C984        C985   1.410       .  A
C984        C989   1.506       .  S
C985        C986   1.409       .  A
C985        F990   1.358       .  S
C986        C987   1.408       .  A
C986       F1002   1.356       .  S
C987        C988   1.408       .  A
C988        F991   1.357       .  S
C989        C992   1.406       .  A
C989        C996   1.409       .  A
C992        C993   1.408       .  A
C992        F997   1.358       .  S
C993        C994   1.417       .  A
C993        F999   1.358       .  S
C994        C995   1.415       .  A
C995        C996   1.412       .  A
C995        F998   1.357       .  S
C996       F1000   1.357       .  S
C1003      C1004   1.407       .  A
C1003      C1008   1.411       .  A
C1003      F1021   1.358       .  S
C1004      C1005   1.406       .  A
C1004      C1009   1.504       .  S
C1005      C1006   1.409       .  A
C1005      F1010   1.358       .  S
C1006      C1007   1.416       .  A
C1006      F1022   1.357       .  S
C1007      C1008   1.417       .  A
C1008      F1011   1.357       .  S
C1009      C1012   1.407       .  A
C1009      C1016   1.407       .  A
C1012      C1013   1.411       .  A
C1012      F1017   1.358       .  S
C1013      C1014   1.414       .  A
C1013      F1019   1.355       .  S
C1014      C1015   1.410       .  A
C1015      C1016   1.408       .  A
C1015      F1018   1.353       .  S
C1016      F1020   1.357       .  S
C1023      C1024   1.407       .  A
C1023      C1028   1.407       .  A
C1023      F1041   1.358       .  S
C1024      C1025   1.407       .  A
C1024      C1029   1.502       .  S
C1025      C1026   1.410       .  A
C1025      F1030   1.358       .  S
C1026      C1027   1.417       .  A
C1026      F1042   1.358       .  S
C1027      C1028   1.414       .  A
C1028      F1031   1.357       .  S
C1029      C1032   1.407       .  A
C1029      C1036   1.410       .  A
C1032      C1033   1.405       .  A
C1032      F1037   1.358       .  S
C1033      C1034   1.407       .  A
C1033      F1039   1.354       .  S
C1034      C1035   1.409       .  A
C1035      C1036   1.411       .  A
C1035      F1038   1.357       .  S
C1036      F1040   1.357       .  S
C1043      C1044   1.411       .  A
C1043      C1048   1.413       .  A
C1043      F1061   1.357       .  S
C1044      C1045   1.411       .  A
C1044      C1049   1.514       .  S
C1045      C1046   1.412       .  A
C1045      F1050   1.357       .  S
C1046      C1047   1.411       .  A
C1046      F1062   1.356       .  S
C1047      C1048   1.412       .  A
C1048      F1051   1.357       .  S
C1049      C1052   1.410       .  A
C1049      C1056   1.410       .  A
C1052      C1053   1.413       .  A
C1052      F1057   1.358       .  S
C1053      C1054   1.417       .  A
C1053      F1059   1.357       .  S
C1054      C1055   1.416       .  A
C1055      C1056   1.412       .  A
C1055      F1058   1.357       .  S
C1056      F1060   1.358       .  S
C1063      C1064   1.407       .  A
C1063      C1068   1.410       .  A
C1063      F1081   1.358       .  S
C1064      C1065   1.408       .  A
C1064      C1069   1.506       .  S
C1065      C1066   1.410       .  A
C1065      F1070   1.358       .  S
C1066      C1067   1.417       .  A
C1066      F1082   1.357       .  S
C1067      C1068   1.417       .  A
C1068      F1071   1.357       .  S
C1069      C1072   1.406       .  A
C1069      C1076   1.409       .  A
C1072      C1073   1.405       .  A
C1072      F1077   1.358       .  S
C1073      C1074   1.412       .  A
C1073      F1079   1.351       .  S
C1074      C1075   1.415       .  A
C1075      C1076   1.412       .  A
C1075      F1078   1.357       .  S
C1076      F1080   1.357       .  S
