geometry optimzed in LAMMPS
_audit_creation_date              2020-11-30 
_audit_creation_method            'lammps2cif' 
_symmetry_space_group_name_H-M    'P1' 
_symmetry_Int_Tables_number       1 
_symmetry_cell_setting            triclinic 
loop_ 
_symmetry_equiv_pos_as_xyz 
  x,y,z 
_cell_length_a                    32.65661764 
_cell_length_b                    32.94231753906875 
_cell_length_c                    26.091993583890254 
_cell_angle_alpha                 90.00772551879984 
_cell_angle_beta                  89.89535483587393 
_cell_angle_gamma                 119.91344770900666 
loop_ 
_atom_site_label 
_atom_site_type_symbol 
_atom_site_fract_x 
_atom_site_fract_y 
_atom_site_fract_z 
_atom_site_charge 
C1          C  0.33903897  0.67021709  0.20107083     0.46200
H2          H  0.33778127  0.67111133  0.15874295    -0.02800
C3          C  0.33891617  0.66899275  0.30028761     0.46300
H4          H  0.33879459  0.66788865  0.34259179    -0.02800
C5          C  0.36523653  0.72072785  0.22515004    -0.16500
C6          C  0.28796071  0.64540586  0.22406502    -0.16300
C7          C  0.36348292  0.64290281  0.22270713    -0.16600
C8          C  0.36574266  0.72030446  0.27862357    -0.16600
C9          C  0.28791541  0.64485331  0.27715924    -0.16200
C10         C  0.36354285  0.64270306  0.27655028    -0.16500
N11         N  0.10084575  0.30455012  0.75154346    -0.35800
N12         N  0.14472322  0.27998693  0.83688621    -0.56400
N13         N  0.24988921  0.30390831  0.75519900    -0.35800
N14         N  0.15660256  0.30214579  0.66686820    -0.56400
C15         C  0.07477882  0.30119121  0.79327906     0.27700
C16         C  0.07777920  0.30891890  0.71066213     0.27700
C17         C  0.22097415  0.27516858  0.79207081     0.27700
C18         C  0.22692810  0.28751335  0.71055393     0.27700
C19         C  0.12406330  0.29932589  0.86428923     0.36400
C20         C  0.18099105  0.28432552  0.86566892     0.36400
C21         C  0.13533979  0.32172364  0.64147397     0.36400
C22         C  0.19716624  0.31452233  0.64176147     0.36400
C23         C  0.03373612  0.30059258  0.77861876    -0.21100
C24         C  0.03548736  0.30522424  0.72640246    -0.21100
C25         C  0.18250222  0.23677236  0.77015708    -0.21100
C26         C  0.18631684  0.24458493  0.71822841    -0.21100
C27         C  0.14380361  0.31143082  0.91280797    -0.22200
C28         C  0.17976350  0.30138702  0.91385897    -0.22200
C29         C  0.15985766  0.34263866  0.59666184    -0.22200
C30         C  0.19927544  0.33775008  0.59672557    -0.22200
C31         C  0.09292784  0.31241936  0.84321786    -0.17500
C32         C  0.09793234  0.32588047  0.66198415    -0.17500
C33         C  0.23571755  0.31662311  0.66774241    -0.17500
C34         C  0.22254357  0.29045448  0.84258019    -0.17500
H35         H  0.00749352  0.30116495  0.80356115     0.15400
H36         H  0.01053564  0.30957086  0.70310712     0.15400
H37         H  0.15219253  0.20915801  0.78986534     0.15400
H38         H  0.15960009  0.22395799  0.69010843     0.15400
H39         H  0.13613905  0.32951468  0.94261267     0.13700
H40         H  0.20604852  0.31168504  0.94375822     0.13700
H41         H  0.15243172  0.36271920  0.56918473     0.13700
H42         H  0.22845356  0.35388468  0.56993431     0.13700
H43         H  0.13607160  0.31279400  0.75251584     0.26900
H44         H  0.27838644  0.33764294  0.76093834     0.26900
N45         N  0.08220877  0.78361507  0.74553371    -0.35800
N46         N  0.14036851  0.84582363  0.82818037    -0.56400
N47         N  0.21255412  0.90836209  0.75829072    -0.35800
N48         N  0.15358780  0.84837392  0.67540844    -0.56400
C49         C  0.06746385  0.75420157  0.78616242     0.27700
C50         C  0.07333715  0.75659390  0.70337091     0.27700
C51         C  0.23709932  0.91993482  0.80268686     0.27700
C52         C  0.24461689  0.92034146  0.72019294     0.27700
C53         C  0.10328874  0.81352491  0.85518273     0.36400
C54         C  0.16959203  0.87777302  0.86230231     0.36400
C55         C  0.12183113  0.81915530  0.64115080     0.36400
C56         C  0.18922474  0.88193440  0.64790573     0.36400
C57         C  0.04609100  0.70813816  0.76934261    -0.21100
C58         C  0.04976864  0.70963129  0.71721580    -0.21100
C59         C  0.28523524  0.94262956  0.79223606    -0.21100
C60         C  0.28993973  0.94292688  0.74027248    -0.21100
C61         C  0.10755889  0.82646222  0.90630515    -0.22200
C62         C  0.14978061  0.86734423  0.91083455    -0.22200
C63         C  0.13596238  0.83565506  0.59171737    -0.22200
C64         C  0.17899439  0.87556088  0.59600954    -0.22200
C65         C  0.07561116  0.76736937  0.83820880    -0.17500
C66         C  0.08846984  0.77280186  0.65299583    -0.17500
C67         C  0.23453622  0.90995518  0.66783962    -0.17500
C68         C  0.21765034  0.90800305  0.85250682    -0.17500
H69         H  0.03113921  0.67654994  0.79225602     0.15400
H70         H  0.03838350  0.67937731  0.69273080     0.15400
H71         H  0.31424627  0.95598539  0.81912193     0.15400
H72         H  0.32311538  0.95679867  0.71981551     0.15400
H73         H  0.08510064  0.80591805  0.93775325     0.13700
H74         H  0.16615576  0.88481634  0.94637213     0.13700
H75         H  0.11927708  0.81823354  0.55625729     0.13700
H76         H  0.20198678  0.89519421  0.56449321     0.13700
H77         H  0.09741021  0.81989660  0.74655188     0.26900
H78         H  0.17624051  0.89378544  0.75407170     0.26900
N79         N  0.80029725  0.71709439  0.26942521    -0.35800
N80         N  0.86773864  0.73636170  0.35466907    -0.56400
N81         N  0.91713541  0.71867660  0.27054338    -0.35800
N82         N  0.85032121  0.69995882  0.18940969    -0.56400
C83         C  0.78563581  0.73314670  0.30863215     0.27700
C84         C  0.77472304  0.71432997  0.22787248     0.27700
C85         C  0.94705011  0.73367795  0.31044413     0.27700
C86         C  0.94086391  0.71699555  0.22924163     0.27700
C87         C  0.82658867  0.72084644  0.38040552     0.36400
C88         C  0.89231481  0.71996627  0.38075701     0.36400
C89         C  0.80561441  0.67596292  0.17178355     0.36400
C90         C  0.87199857  0.67673770  0.17257950     0.36400
C91         C  0.75182417  0.74350032  0.29072538    -0.21100
C92         C  0.74481420  0.73143422  0.23957406    -0.21100
C93         C  0.99177017  0.74493901  0.29335888    -0.21100
C94         C  0.98787404  0.73442966  0.24181077    -0.21100
C95         C  0.82720142  0.69880124  0.42544386    -0.22200
C96         C  0.86888671  0.69808707  0.42554261    -0.22200
C97         C  0.79949750  0.63884514  0.14138360    -0.22200
C98         C  0.84161692  0.63919199  0.14205891    -0.22200
C99         C  0.78532208  0.71725505  0.35850131    -0.17500
C100        C  0.76966501  0.68555558  0.18591949    -0.17500
C101        C  0.91779322  0.68744653  0.18757731    -0.17500
C102        C  0.93017066  0.71630308  0.35956482    -0.17500
H103        H  0.72994339  0.75261225  0.31363735     0.15400
H104        H  0.71735182  0.73039945  0.21549452     0.15400
H105        H  0.02223040  0.75337842  0.31691083     0.15400
H106        H  0.01486708  0.73394668  0.21810805     0.15400
H107        H  0.79862250  0.68110540  0.45270668     0.13700
H108        H  0.87888463  0.67990808  0.45292896     0.13700
H109        H  0.76740431  0.61267442  0.12304595     0.13700
H110        H  0.84806276  0.61320358  0.12434717     0.13700
H111        H  0.81623232  0.69693233  0.27451336     0.26900
H112        H  0.88085815  0.69809773  0.27484714     0.26900
O113        O  0.06753096  0.58882780  0.95252064    -0.77700
C114        C  0.11426961  0.55364842  0.09664262     0.83300
O115        O  0.00674018  0.42161478  0.94583188    -0.78800
O116        O  0.97394767  0.42253445  0.11220823    -0.80300
O117        O  0.93315862  0.53613771  0.05685784    -0.80100
O118        O  0.99356695  0.57520588  0.95919255    -0.78800
Zn119      Zn  0.06389675  0.53158299  0.98945708     1.55700
O120        O  0.97493887  0.53116375  0.12211064    -0.80100
Cd121      Cd  0.95292474  0.51457750  0.99425215     1.59700
Cd122      Cd  0.96006075  0.43141750  0.98338537     1.59600
O123        O  0.89521092  0.47567182  0.94400747    -0.80100
O124        O  0.99805843  0.49405110  0.01473891    -1.90600
Cd125      Cd  0.00408577  0.49294895  0.09142999     1.59900
O126        O  0.90482376  0.41512749  0.93041519    -0.80100
O127        O  0.07458538  0.52962322  0.11945364    -0.78800
C128        C  0.05046158  0.44347811  0.93592470     0.83800
C129        C  0.03625350  0.60113993  0.94611481     0.83400
O130        O  0.11562870  0.55733754  0.04768836    -0.77700
C131        C  0.95022118  0.54705201  0.10176281     0.84300
O132        O  0.07741247  0.48699724  0.94609328    -0.77800
C133        C  0.88303688  0.43729582  0.92064334     0.84400
C134        C  0.95198689  0.38431775  0.08671796     0.84700
O135        O  0.94085460  0.38296441  0.03975760    -0.80200
O136        O  0.11126072  0.55699375  0.44852807    -0.77700
C137        C  0.03419767  0.60436654  0.54420541     0.83300
O138        O  0.99850804  0.41847735  0.54223533    -0.78800
O139        O  0.89723803  0.47929546  0.55876157    -0.80300
O140        O  0.97615561  0.54493572  0.38044320    -0.80100
O141        O  0.07227710  0.53188319  0.37550503    -0.78800
Zn142      Zn  0.05745401  0.53096095  0.50446802     1.55700
O143        O  0.91967326  0.52933637  0.43849107    -0.80100
Cd144      Cd  0.00104027  0.49973386  0.40161453     1.59700
Cd145      Cd  0.95276546  0.43015605  0.50318962     1.59600
O146        O  0.97093445  0.43133130  0.37377172    -0.80100
O147        O  0.99251473  0.49509552  0.47804280    -1.90600
Cd148      Cd  0.94887892  0.51705087  0.50153129     1.59900
O149        O  0.93614233  0.38612396  0.44281650    -0.80100
O150        O  0.99137398  0.58091670  0.53035278    -0.78800
C151        C  0.04101999  0.44165202  0.55729766     0.83800
C152        C  0.11138382  0.55370000  0.39964614     0.83400
O153        O  0.06273733  0.58845443  0.54023969    -0.77700
C154        C  0.94461087  0.55239183  0.40021907     0.84300
O155        O  0.06731910  0.48573826  0.54967766    -0.77800
C156        C  0.94951047  0.39153206  0.39629769     0.84400
C157        C  0.87889038  0.43655692  0.57255087     0.84700
O158        O  0.89402449  0.41107873  0.55265790    -0.80200
N159        N  0.80117663  0.07774384  0.27776508    -0.35800
N160        N  0.87298197  0.13363925  0.35561261    -0.56400
N161        N  0.91796545  0.18900880  0.26253397    -0.35800
N162        N  0.84979305  0.12999685  0.18678595    -0.56400
C163        C  0.79127261  0.05195534  0.32069382     0.27700
C164        C  0.77733216  0.04867808  0.23900701     0.27700
C165        C  0.94913596  0.21042429  0.30062757     0.27700
C166        C  0.93992125  0.20854450  0.21804221     0.27700
C167        C  0.83438429  0.11043462  0.38577923     0.36400
C168        C  0.89842430  0.17684960  0.37605786     0.36400
C169        C  0.80467318  0.10658798  0.17028188     0.36400
C170        C  0.87042062  0.17138754  0.16180766     0.36400
C171        C  0.76170033  0.00511889  0.30853851    -0.21100
C172        C  0.75228169  0.00316501  0.25678233    -0.21100
C173        C  0.99266023  0.24214600  0.27981042    -0.21100
C174        C  0.98689121  0.24081114  0.22749230    -0.21100
C175        C  0.83820784  0.13696544  0.42867337    -0.22200
C176        C  0.87868253  0.17948728  0.42212119    -0.22200
C177        C  0.79750338  0.13174234  0.13223512    -0.22200
C178        C  0.83920316  0.17292827  0.12694038    -0.22200
C179        C  0.79180986  0.07188241  0.36826264    -0.17500
C180        C  0.76920926  0.06494337  0.19283641    -0.17500
C181        C  0.91515773  0.20933506  0.17442967    -0.17500
C182        C  0.93399456  0.21561923  0.34917987    -0.17500
H183        H  0.74486352  0.97603380  0.33495053     0.15400
H184        H  0.72718632  0.97258395  0.23555540     0.15400
H185        H  0.02359218  0.26770069  0.30034119     0.15400
H186        H  0.01242845  0.26506781  0.20026486     0.15400
H187        H  0.81188253  0.12855313  0.45826543     0.13700
H188        H  0.89012407  0.21007338  0.44611218     0.13700
H189        H  0.76497246  0.12303353  0.11267007     0.13700
H190        H  0.84452763  0.20170515  0.10257249     0.13700
H191        H  0.81319035  0.11354048  0.27745425     0.26900
H192        H  0.88167666  0.17224991  0.26780399     0.26900
N193        N  0.27491421  0.08384123  0.21962375    -0.35800
N194        N  0.28734851  0.14668308  0.30315087    -0.56400
N195        N  0.26709061  0.19614611  0.22554707    -0.35800
N196        N  0.25325920  0.13215829  0.13847566    -0.56400
C197        C  0.27641345  0.05963139  0.26034451     0.27700
C198        C  0.26145959  0.05520068  0.17878895     0.27700
C199        C  0.27079094  0.22169248  0.26747153     0.27700
C200        C  0.25094772  0.21127406  0.18680574     0.27700
C201        C  0.31109251  0.12574170  0.32076131     0.36400
C202        C  0.30924756  0.19023259  0.32330575     0.36400
C203        C  0.27144494  0.11010458  0.11067510     0.36400
C204        C  0.26594886  0.17274943  0.11359521     0.36400
C205        C  0.26130357  0.01381634  0.24611413    -0.21100
C206        C  0.25190707  0.01103000  0.19436125    -0.21100
C207        C  0.25401405  0.25185270  0.25644458    -0.21100
C208        C  0.24125489  0.24512466  0.20545314    -0.21100
C209        C  0.34649470  0.15522024  0.35419550    -0.22200
C210        C  0.34520692  0.19599124  0.35594136    -0.22200
C211        C  0.29170680  0.13441247  0.06589081    -0.22200
C212        C  0.28823316  0.17416809  0.06766729    -0.22200
C213        C  0.30329935  0.08167813  0.30409627    -0.17500
C214        C  0.27754399  0.07339118  0.12972442    -0.17500
C215        C  0.26602422  0.21183876  0.13617276    -0.17500
C216        C  0.29948350  0.22596061  0.30966774    -0.17500
H217        H  0.26212911  0.98693334  0.26919626     0.15400
H218        H  0.24456005  0.98160027  0.16999813     0.15400
H219        H  0.25568193  0.27920377  0.28086249     0.15400
H220        H  0.23267849  0.26741544  0.18282066     0.15400
H221        H  0.37253532  0.14938058  0.37312967     0.13700
H222        H  0.36990454  0.22715489  0.37658280     0.13700
H223        H  0.31047071  0.12624844  0.03716989     0.13700
H224        H  0.30393469  0.20259178  0.04029158     0.13700
H225        H  0.29442299  0.12005076  0.21667549     0.26900
H226        H  0.28660031  0.17957962  0.21988692     0.26900
N227        N  0.69682486  0.79477160  0.72905302    -0.35800
N228        N  0.67784786  0.84498705  0.80667604    -0.56400
N229        N  0.69963376  0.91434638  0.72936305    -0.35800
N230        N  0.72367463  0.86644426  0.64904973    -0.56400
C231        C  0.69323644  0.76920560  0.77081719     0.27700
C232        C  0.71344904  0.77989961  0.69054896     0.27700
C233        C  0.69142400  0.93497729  0.76952943     0.27700
C234        C  0.71684783  0.94573199  0.69098541     0.27700
C235        C  0.65967215  0.80336429  0.83050862     0.36400
C236        C  0.65737702  0.86730574  0.82877194     0.36400
C237        C  0.71146771  0.82814575  0.61999867     0.36400
C238        C  0.71400369  0.89454200  0.62008362     0.36400
C239        C  0.70882311  0.73810464  0.75913038    -0.21100
C240        C  0.72141593  0.74475980  0.70815191    -0.21100
C241        C  0.70560482  0.98110013  0.75752787    -0.21100
C242        C  0.72185362  0.98794140  0.70783972    -0.21100
C243        C  0.63040521  0.80064070  0.87055881    -0.22200
C244        C  0.62882963  0.84132556  0.86935158    -0.22200
C245        C  0.69833406  0.83379351  0.57127545    -0.22200
C246        C  0.70003844  0.87609821  0.57126508    -0.22200
C247        C  0.66724177  0.76690784  0.81476068    -0.17500
C248        C  0.70567518  0.78577548  0.63906799    -0.17500
C249        C  0.70956665  0.93200115  0.63943271    -0.17500
C250        C  0.66344385  0.91042300  0.81198766    -0.17500
H251        H  0.70764038  0.71098569  0.78353165     0.15400
H252        H  0.73098784  0.72328010  0.68537462     0.15400
H253        H  0.70095517  0.00591025  0.78040647     0.15400
H254        H  0.73073026  0.01849689  0.68464565     0.15400
H255        H  0.61099371  0.77179174  0.89680181     0.13700
H256        H  0.60814974  0.85018056  0.89464344     0.13700
H257        H  0.68570051  0.80864329  0.54025345     0.13700
H258        H  0.68872709  0.88997511  0.54020611     0.13700
H259        H  0.67794304  0.81205023  0.72346839     0.26900
H260        H  0.68317077  0.87850768  0.72379101     0.26900
O261        O  0.42433068  0.94178327  0.55154914    -0.84700
C262        C  0.45321025  0.89616283  0.40327119     0.83300
O263        O  0.59791048  0.01867109  0.52960179    -0.78800
O264        O  0.57485766  0.03074438  0.38235571    -0.80300
O265        O  0.45340470  0.06739175  0.44326093    -0.80100
O266        O  0.42811399  0.01123594  0.54546806    -0.78800
Zn267      Zn  0.48049565  0.95105981  0.50759492     1.55700
O268        O  0.46625552  0.03431094  0.37438161    -0.80100
Cd269      Cd  0.48416700  0.05534357  0.50441202     1.59700
Cd270      Cd  0.57472258  0.05974633  0.50208313     1.59600
O271        O  0.52400929  0.11477353  0.55285257    -0.80100
O272        O  0.50914896  0.01512225  0.48021361    -1.90600
Cd273      Cd  0.50541626  0.00552094  0.40403635     1.59900
O274        O  0.58857057  0.10998752  0.56028099    -0.80100
O275        O  0.47150866  0.93495868  0.37894196    -0.78800
C276        C  0.57929311  0.97683364  0.54548066     0.83800
C277        C  0.40736817  0.96888534  0.55989368     0.83400
O278        O  0.45310836  0.89647131  0.45241299    -0.77700
C279        C  0.44597342  0.05426084  0.39658745     0.84300
O280        O  0.53460845  0.94817923  0.54416325    -0.77800
C281        C  0.56429066  0.12882128  0.57367107     0.84400
C282        C  0.61339553  0.06298281  0.40131965     0.84700
O283        O  0.61426700  0.08904010  0.43777349    -0.80200
O284        O  0.44465232  0.55530494  0.45951795    -0.77700
C285        C  0.41313301  0.44994349  0.58695885     0.83300
O286        O  0.59312237  0.58212887  0.54437563    -0.78800
O287        O  0.52193878  0.41229664  0.56143522    -0.80300
O288        O  0.46212489  0.43159453  0.38731956    -0.80100
O289        O  0.46634229  0.53524430  0.38784321    -0.78800
Zn290      Zn  0.47580092  0.53300600  0.51727852     1.55700
O291        O  0.44225105  0.38799422  0.45893202    -0.80100
Cd292      Cd  0.50087041  0.49996710  0.41481004     1.59700
Cd293      Cd  0.57191568  0.51939159  0.51219482     1.59600
O294        O  0.56893901  0.54394213  0.38931088    -0.80100
O295        O  0.50531299  0.49686998  0.49116869    -1.90600
Cd296      Cd  0.47932212  0.43233156  0.51776827     1.59900
O297        O  0.61402845  0.53685945  0.44899084    -0.80100
O298        O  0.43091531  0.42654142  0.56855890    -0.78800
C299        C  0.57459825  0.60716795  0.55444701     0.83800
C300        C  0.44626548  0.55508068  0.41027239     0.83400
O301        O  0.42614006  0.49179621  0.57207890    -0.77700
C302        C  0.43821436  0.39251745  0.41089746     0.84300
O303        O  0.53054382  0.59268391  0.54795539    -0.77800
C304        C  0.60911606  0.55511475  0.40825772     0.84400
C305        C  0.56421108  0.43726954  0.57792889     0.84700
O306        O  0.58851536  0.47981744  0.56339030    -0.80200
O307        O  0.45027646  0.89402266  0.05056933    -0.77700
C308        C  0.38864455  0.96455118  0.95670602     0.83300
O309        O  0.57766177  0.01005663  0.94729383    -0.78800
O310        O  0.51956415  0.10196615  0.93072178    -0.80300
O311        O  0.45088420  0.03134115  0.11110838    -0.80100
O312        O  0.45672266  0.93337561  0.12160584    -0.78800
Zn313      Zn  0.46744291  0.94597187  0.99340978     1.55700
O314        O  0.46716891  0.08407606  0.04882925    -0.80100
Cd315      Cd  0.49416815  0.00356447  0.09410361     1.59700
Cd316      Cd  0.56803627  0.05159594  0.99545200     1.59600
O317        O  0.56184219  0.02980528  0.12529744    -0.80100
O318        O  0.50193900  0.01094774  0.01779535    -1.90600
Cd319      Cd  0.47963437  0.05217328  0.98864206     1.59900
O320        O  0.60909907  0.05661611  0.05613483    -0.80100
O321        O  0.41445221  0.00853395  0.96190294    -0.78800
C322        C  0.55433480  0.96896262  0.92912723     0.83800
C323        C  0.44487751  0.89456746  0.09922654     0.83400
O324        O  0.40426453  0.93635424  0.96523270    -0.77700
C325        C  0.44376958  0.06153723  0.08813278     0.84300
O326        O  0.51092886  0.94078476  0.94043137    -0.77800
C327        C  0.60184195  0.04447006  0.10312135     0.84400
C328        C  0.56435899  0.12544922  0.92494594     0.84700
O329        O  0.59017614  0.11469854  0.95216095    -0.80200
O330        O  0.40464731  0.47460230  0.94067384    -0.77700
C331        C  0.43897403  0.54756256  0.08762982     0.83300
O332        O  0.57629980  0.57520420  0.93616431    -0.78800
O333        O  0.55881820  0.52723903  0.10924870    -0.80300
O334        O  0.42757837  0.38525969  0.01567597    -0.80100
O335        O  0.43571197  0.43418797  0.90682758    -0.78800
Zn336      Zn  0.46381323  0.52559867  0.97820584     1.55700
O337        O  0.44728106  0.41814081  0.09388055    -0.80100
Cd338      Cd  0.47415197  0.43292401  0.96625316     1.59700
Cd339      Cd  0.56372865  0.51959147  0.97774532     1.59600
O340        O  0.51927401  0.41139713  0.93344744    -0.80100
O341        O  0.49810478  0.49376953  0.00125624    -1.90600
Cd342      Cd  0.49072958  0.48932018  0.07763455     1.59900
O343        O  0.58441843  0.48011006  0.93093495    -0.80100
O344        O  0.45453933  0.52266683  0.10819419    -0.78800
C345        C  0.55385270  0.59537117  0.92182206     0.83800
C346        C  0.40085416  0.44040489  0.91373474     0.83400
O347        O  0.44154075  0.55319364  0.03877638    -0.77700
C348        C  0.42150371  0.38394007  0.06391453     0.84300
O349        O  0.51016500  0.57977331  0.93241963    -0.77800
C350        C  0.56167448  0.43701803  0.91802178     0.84400
C351        C  0.59909963  0.55117903  0.08727690     0.84700
O352        O  0.60516306  0.54849885  0.03949580    -0.80200
C353        C  0.67104815  0.33395676  0.70037664     0.46200
H354        H  0.67063471  0.33384280  0.65779165    -0.02800
C355        C  0.67194154  0.33445796  0.79960578     0.46300
H356        H  0.67219844  0.33474117  0.84218829    -0.02800
C357        C  0.64533281  0.28376296  0.72382271    -0.16500
C358        C  0.72204305  0.35885695  0.72271141    -0.16300
C359        C  0.64622286  0.35951767  0.72352185    -0.16600
C360        C  0.64657120  0.28390133  0.77711431    -0.16600
C361        C  0.72255076  0.35983063  0.77592086    -0.16200
C362        C  0.64603895  0.35918118  0.77663164    -0.16500
C363        C  0.61913394  0.44603671  0.84713726    -0.20500
C364        C  0.58391747  0.41700249  0.88264621    -0.08600
C365        C  0.56863062  0.36862079  0.88150018     0.30300
C366        C  0.58865755  0.35042915  0.84681096    -0.20500
C367        C  0.62322805  0.37935356  0.81090157    -0.08600
C368        C  0.63813610  0.42753973  0.81143416     0.30300
F369        F  0.67210552  0.45708226  0.77841090    -0.19100
H370        H  0.63150317  0.48325292  0.84636446     0.18600
H371        H  0.57686101  0.31331976  0.84779416     0.18600
F372        F  0.53478928  0.33880362  0.91450920    -0.19100
C373        C  0.65353192  0.23747959  0.85119474    -0.20500
C374        C  0.62565623  0.24126303  0.81227408    -0.08600
C375        C  0.57754126  0.20641590  0.81071780     0.30300
C376        C  0.55824463  0.16935406  0.84694292    -0.20500
C377        C  0.58612856  0.16532279  0.88592428    -0.08600
C378        C  0.63449850  0.20008133  0.88693572     0.30300
F379        F  0.66343926  0.19885552  0.92339158    -0.19100
H380        H  0.69051427  0.26390074  0.85406914     0.18600
H381        H  0.52100774  0.14370169  0.84454098     0.18600
F382        F  0.54850022  0.20923940  0.77557097    -0.19100
C383        C  0.55608930  0.37763761  0.64595177    -0.20500
C384        C  0.58522898  0.41722614  0.61542631    -0.08600
C385        C  0.63464877  0.43817052  0.62258009     0.30300
C386        C  0.65377068  0.41988323  0.65832274    -0.20500
C387        C  0.62460224  0.38094951  0.68922145    -0.08600
C388        C  0.57536126  0.35995624  0.68245493     0.30300
F389        F  0.54582815  0.32139999  0.71013099    -0.19100
H390        H  0.51807465  0.36043681  0.64189922     0.18600
H391        H  0.69179720  0.43617390  0.66173997     0.18600
F392        F  0.66487098  0.47582169  0.59409202    -0.19100
C393        C  0.61483284  0.16941577  0.65240182    -0.20500
C394        C  0.58321894  0.16721175  0.61400740    -0.08600
C395        C  0.57058975  0.20244113  0.61456779     0.30300
C396        C  0.59002137  0.23902564  0.65097505    -0.20500
C397        C  0.62160855  0.24125992  0.68912168    -0.08600
C398        C  0.63338449  0.20550988  0.68967141     0.30300
F399        F  0.66446752  0.20654202  0.72481142    -0.19100
H400        H  0.62535005  0.14302741  0.65356608     0.18600
H401        H  0.58056619  0.26617886  0.64906137     0.18600
F402        F  0.54078703  0.20271246  0.57858965    -0.19100
C403        C  0.62378719  0.72330822  0.62226519    -0.20500
C404        C  0.67230117  0.74252584  0.61231660    -0.08600
C405        C  0.68800930  0.71912704  0.58042859     0.30300
C406        C  0.65548670  0.67551959  0.56070915    -0.20500
C407        C  0.60694449  0.65491669  0.57254359    -0.08600
C408        C  0.59110251  0.67980176  0.60231151     0.30300
F409        F  0.54465629  0.66134574  0.61404132    -0.19100
H410        H  0.61154116  0.74161471  0.64685435     0.18600
H411        H  0.66845116  0.65751558  0.53666325     0.18600
F412        F  0.73465629  0.73783287  0.56964675    -0.19100
C413        C  0.69232499  0.97736974  0.57561029    -0.20500
C414        C  0.67641697  0.94232769  0.61260459    -0.08600
C415        C  0.62807947  0.91616209  0.62504539     0.30300
C416        C  0.59601384  0.92631062  0.60179575    -0.20500
C417        C  0.61191099  0.96260531  0.56600732    -0.08600
C418        C  0.66029626  0.98746363  0.55206938     0.30300
F419        F  0.67680409  0.02165283  0.51586319    -0.19100
H420        H  0.72942036  0.99701273  0.56544153     0.18600
H421        H  0.55914517  0.90681128  0.61288790     0.18600
F422        F  0.61221386  0.88130388  0.66042023    -0.19100
C423        C  0.63032576  0.66631220  0.90512694    -0.20500
C424        C  0.58172545  0.63925388  0.89395837    -0.08600
C425        C  0.56200490  0.65376281  0.85553966     0.30300
C426        C  0.59089165  0.69464334  0.82831353    -0.20500
C427        C  0.63920773  0.72151767  0.83995168    -0.08600
C428        C  0.65890922  0.70737638  0.87845228     0.30300
F429        F  0.70537389  0.73361491  0.89060589    -0.19100
H430        H  0.64616323  0.65587384  0.93505882     0.18600
H431        H  0.57556720  0.70607839  0.79881565     0.18600
F432        F  0.51544015  0.62814203  0.84372011    -0.19100
C433        C  0.58742639  0.90802192  0.82849721    -0.20500
C434        C  0.63611590  0.92853295  0.83806536    -0.08600
C435        C  0.65736276  0.96220026  0.87624565     0.30300
C436        C  0.63013586  0.97531360  0.90491269    -0.20500
C437        C  0.58111861  0.95436069  0.89647419    -0.08600
C438        C  0.55976200  0.92059134  0.85793919     0.30300
F439        F  0.51268622  0.90009791  0.84876409    -0.19100
H440        H  0.57085172  0.88133491  0.79927517     0.18600
H441        H  0.64735808  0.00105933  0.93491489     0.18600
F442        F  0.70404881  0.98107884  0.88680904    -0.19100
C443        C  0.33830168  0.32079857  0.05684249    -0.20500
C444        C  0.38111726  0.34167120  0.08434115    -0.08600
C445        C  0.38468125  0.32133162  0.12980833     0.30300
C446        C  0.34639717  0.27956168  0.14646371    -0.20500
C447        C  0.30368387  0.25831377  0.11889257    -0.08600
C448        C  0.29945203  0.27950798  0.07433993     0.30300
F449        F  0.25852856  0.25967752  0.04731685    -0.19100
H450        H  0.33504963  0.33655940  0.02174319     0.18600
H451        H  0.35043565  0.26291870  0.18033770     0.18600
F452        F  0.42574862  0.34042844  0.15652917    -0.19100
C453        C  0.36831795  0.30662664  0.30531190    -0.20500
C454        C  0.32928929  0.27260338  0.33302784    -0.08600
C455        C  0.32546363  0.27924985  0.38544285     0.30300
C456        C  0.36138882  0.31821302  0.41023827    -0.20500
C457        C  0.40152162  0.35146464  0.38310985    -0.08600
C458        C  0.40419124  0.34595453  0.33002754     0.30300
F459        F  0.44239926  0.37714795  0.30261347    -0.19100
H460        H  0.37227344  0.30131225  0.26507112     0.18600
H461        H  0.35789334  0.32219694  0.45095941     0.18600
F462        F  0.28841336  0.24653938  0.41309469    -0.19100
C463        C  0.37023773  0.05363472  0.40028618    -0.20500
C464        C  0.40806687  0.05778041  0.37033905    -0.08600
C465        C  0.40672934  0.06197419  0.31691682     0.30300
C466        C  0.36996105  0.06594345  0.29465385    -0.20500
C467        C  0.33383744  0.06463998  0.32536453    -0.08600
C468        C  0.33314992  0.05643159  0.37799929     0.30300
F469        F  0.29859112  0.05502526  0.40826022    -0.19100
H470        H  0.36948705  0.04856768  0.44138288     0.18600
H471        H  0.37101080  0.07265006  0.25386917     0.18600
F472        F  0.44187898  0.06461541  0.28674955    -0.19100
C473        C  0.31663378  0.03016544  0.09500694    -0.20500
C474        C  0.32028681  0.07172885  0.11353560    -0.08600
C475        C  0.36536569  0.10998630  0.12506544     0.30300
C476        C  0.40589606  0.10659890  0.11784737    -0.20500
C477        C  0.40188099  0.06453687  0.10114533    -0.08600
C478        C  0.35712333  0.02638485  0.08928480     0.30300
F479        F  0.35281686  0.98585037  0.07092580    -0.19100
H480        H  0.28239213  0.00039433  0.08616340     0.18600
H481        H  0.44029571  0.13649372  0.12591082     0.18600
F482        F  0.37000300  0.15014480  0.14496601    -0.19100
C483        C  0.70529274  0.02711168  0.38995371    -0.20500
C484        C  0.74641226  0.07021376  0.38102901    -0.08600
C485        C  0.74215763  0.11063995  0.37466842     0.30300
C486        C  0.69852490  0.10814509  0.37999227    -0.20500
C487        C  0.65775447  0.06498649  0.38751391    -0.08600
C488        C  0.66116867  0.02418676  0.39144374     0.30300
F489        F  0.62203224  0.98175077  0.39915547    -0.19100
H490        H  0.70712195  0.99549139  0.39502213     0.18600
H491        H  0.69640184  0.13986755  0.37738401     0.18600
F492        F  0.77976226  0.15242968  0.36130367    -0.19100
C493        C  0.70731179  0.02966213  0.12646104    -0.20500
C494        C  0.72004757  0.04710052  0.17614134    -0.08600
C495        C  0.69042986  0.05852422  0.20462807     0.30300
C496        C  0.65049411  0.05601554  0.18178504    -0.20500
C497        C  0.64058330  0.04311472  0.13021663    -0.08600
C498        C  0.66818557  0.02804268  0.10338064     0.30300
F499        F  0.65818434  0.01301509  0.05410528    -0.19100
H500        H  0.72996661  0.02105920  0.10414722     0.18600
H501        H  0.62909279  0.06675979  0.20326757     0.18600
F502        F  0.70249924  0.07609363  0.25278940    -0.19100
C503        C  0.98189017  0.29981664  0.37477530    -0.20500
C504        C  0.93886626  0.26216617  0.35869946    -0.08600
C505        C  0.90093971  0.26968223  0.34707264     0.30300
C506        C  0.90510855  0.31349335  0.35520397    -0.20500
C507        C  0.94781734  0.35070944  0.37253526    -0.08600
C508        C  0.98653321  0.34395404  0.38114349     0.30300
F509        F  0.02783742  0.37943037  0.39951232    -0.19100
H510        H  0.01154089  0.29482164  0.38318348     0.18600
H511        H  0.87471886  0.31796670  0.34972095     0.18600
F512        F  0.85968790  0.23437566  0.32853540    -0.19100
C513        C  0.83657267  0.44503192  0.65074348    -0.20500
C514        C  0.83968188  0.41641752  0.61232062    -0.08600
C515        C  0.80462797  0.36856164  0.61236833     0.30300
C516        C  0.76763468  0.35048795  0.64881427    -0.20500
C517        C  0.76472191  0.37891978  0.68737093    -0.08600
C518        C  0.80000149  0.42664176  0.68792481     0.30300
F519        F  0.79811596  0.45605907  0.72302142    -0.19100
H520        H  0.86267793  0.48194183  0.65207404     0.18600
H521        H  0.74074382  0.31385560  0.64669010     0.18600
F522        F  0.80493831  0.33934782  0.57589455    -0.19100
C523        C  0.92899702  0.29024389  0.18378676    -0.20500
C524        C  0.92905288  0.25567745  0.15212486    -0.08600
C525        C  0.93698601  0.26383104  0.09948174     0.30300
C526        C  0.94287328  0.30530089  0.07860768    -0.20500
C527        C  0.94251639  0.33988479  0.11012327    -0.08600
C528        C  0.93629270  0.33235826  0.16311149     0.30300
F529        F  0.93575116  0.36490050  0.19456192    -0.19100
H530        H  0.92215937  0.28403725  0.22451468     0.18600
H531        H  0.94818932  0.31053156  0.03766166     0.18600
F532        F  0.93741032  0.23104934  0.06827447    -0.19100
C533        C  0.80872290  0.43224778  0.88341691    -0.20500
C534        C  0.84319571  0.41843263  0.88180477    -0.08600
C535        C  0.83890802  0.38675840  0.84262171     0.30300
C536        C  0.80113005  0.36932411  0.80708277    -0.20500
C537        C  0.76601658  0.38220553  0.80990438    -0.08600
C538        C  0.77055372  0.41407668  0.84867563     0.30300
F539        F  0.73795856  0.42797727  0.85296721    -0.19100
H540        H  0.81069256  0.45659293  0.91252428     0.18600
H541        H  0.79860240  0.34462373  0.77813048     0.18600
F542        F  0.87144007  0.37277214  0.83827605    -0.19100
C543        C  0.97490929  0.67820317  0.39295866    -0.20500
C544        C  0.93337040  0.67408152  0.37266871    -0.08600
C545        C  0.89635090  0.62944719  0.35812644     0.30300
C546        C  0.90050551  0.58963306  0.36513321    -0.20500
C547        C  0.94217268  0.59391536  0.38497672    -0.08600
C548        C  0.97931848  0.63838870  0.39914429     0.30300
F549        F  0.01903072  0.64292174  0.42116400    -0.19100
H550        H  0.00386389  0.71220462  0.40377062     0.18600
H551        H  0.87123294  0.55549615  0.35526007     0.18600
F552        F  0.85641113  0.62453940  0.33636528    -0.19100
C553        C  0.94881769  0.62057813  0.09511143    -0.20500
C554        C  0.94612707  0.58468713  0.12672411    -0.08600
C555        C  0.94214875  0.58747299  0.17993304     0.30300
C556        C  0.93653355  0.62363297  0.20042352    -0.20500
C557        C  0.93599789  0.65754927  0.16798907    -0.08600
C558        C  0.94410298  0.65687978  0.11552797     0.30300
F559        F  0.94393238  0.68941379  0.08372507    -0.19100
H560        H  0.95392533  0.62018611  0.05409289     0.18600
H561        H  0.92998210  0.62377996  0.24113707     0.18600
F562        F  0.94102796  0.55415829  0.21144716    -0.19100
C563        C  0.70194172  0.68033380  0.39071100    -0.20500
C564        C  0.73967450  0.67563072  0.37244689    -0.08600
C565        C  0.73230946  0.63065029  0.36058712     0.30300
C566        C  0.68862462  0.59098617  0.36951114    -0.20500
C567        C  0.65121207  0.59572688  0.38815761    -0.08600
C568        C  0.65772838  0.64059014  0.39811546     0.30300
F569        F  0.62194487  0.64567186  0.41761720    -0.19100
H570        H  0.70676561  0.71464642  0.39910116     0.18600
H571        H  0.68414032  0.55656805  0.36263513     0.18600
F572        F  0.76749060  0.62517476  0.34015268    -0.19100
C573        C  0.67441986  0.62627090  0.08797163    -0.20500
C574        C  0.64032088  0.58707018  0.11557833    -0.08600
C575        C  0.64627560  0.58434558  0.16848364     0.30300
C576        C  0.68739088  0.61878282  0.19230000    -0.20500
C577        C  0.72238265  0.65627883  0.16364914    -0.08600
C578        C  0.71508345  0.66052130  0.11170138     0.30300
F579        F  0.74849135  0.69647030  0.08347465    -0.19100
H580        H  0.67002253  0.63014809  0.04744132     0.18600
H581        H  0.69315480  0.61500846  0.23248874     0.18600
F582        F  0.61387272  0.54747452  0.19639756    -0.19100
C583        C  0.33738381  0.90712268  0.60726460    -0.20500
C584        C  0.36115347  0.95167154  0.58474857    -0.08600
C585        C  0.33955003  0.97985833  0.58469736     0.30300
C586        C  0.29688121  0.96488851  0.60957123    -0.20500
C587        C  0.27468882  0.92164049  0.63390186    -0.08600
C588        C  0.29417043  0.89205867  0.63171884     0.30300
F589        F  0.27239240  0.84971283  0.65542719    -0.19100
H590        H  0.35263340  0.88451000  0.60694332     0.18600
H591        H  0.28177094  0.98761631  0.61123870     0.18600
F592        F  0.35954036  0.02224912  0.56110987    -0.19100
C593        C  0.03227990  0.71072250  0.59522841    -0.20500
C594        C  0.07820750  0.73697391  0.61374362    -0.08600
C595        C  0.11135759  0.72242913  0.60450312     0.30300
C596        C  0.09741421  0.67992712  0.58006753    -0.20500
C597        C  0.05024042  0.65143301  0.56513432    -0.08600
C598        C  0.01806659  0.66809777  0.57131030     0.30300
F599        F  0.97205329  0.64224509  0.55723774    -0.19100
H600        H  0.00650983  0.72153420  0.60295668     0.18600
H601        H  0.12296573  0.66840369  0.57504576     0.18600
F602        F  0.15599069  0.74734761  0.62315039    -0.19100
C603        C  0.27793056  0.96366019  0.91265994    -0.20500
C604        C  0.25144196  0.91792853  0.89455100    -0.08600
C605        C  0.26608901  0.88521382  0.90488458     0.30300
C606        C  0.30994279  0.89980376  0.92756074    -0.20500
C607        C  0.33926680  0.94704187  0.94047860    -0.08600
C608        C  0.32143032  0.97825807  0.93580124     0.30300
F609        F  0.34704831  0.02376241  0.95047305    -0.19100
H610        H  0.26691865  0.98907110  0.90468298     0.18600
H611        H  0.32205075  0.87481322  0.93205942     0.18600
F612        F  0.24033809  0.84047324  0.88779291    -0.19100
C613        C  0.02268373  0.70107154  0.89437570    -0.20500
C614        C  0.06768121  0.73022741  0.87479497    -0.08600
C615        C  0.10387109  0.71957404  0.88263016     0.30300
C616        C  0.09407343  0.67799347  0.90689473    -0.20500
C617        C  0.04812892  0.64688833  0.92382662    -0.08600
C618        C  0.01284346  0.65990627  0.91925464     0.30300
F619        F  0.96822224  0.63242096  0.93723868    -0.19100
H620        H  0.99471958  0.70917023  0.88826762     0.18600
H621        H  0.12196564  0.66951834  0.91092225     0.18600
F622        F  0.14787716  0.74806733  0.86368084    -0.19100
C623        C  0.32181681  0.34727264  0.65952784    -0.20500
C624        C  0.28431973  0.35625255  0.65864248    -0.08600
C625        C  0.29405038  0.40246926  0.64858131     0.30300
C626        C  0.33827327  0.43581903  0.62935174    -0.20500
C627        C  0.37380724  0.42419506  0.62331998    -0.08600
C628        C  0.36651205  0.38129899  0.64362842     0.30300
F629        F  0.40157082  0.37047336  0.64393942    -0.19100
H630        H  0.31601267  0.31300681  0.67019771     0.18600
H631        H  0.34359626  0.46930339  0.61622285     0.18600
F632        F  0.26057600  0.41493360  0.65545537    -0.19100
C633        C  0.27574379  0.37521777  0.86278987    -0.20500
C634        C  0.26791328  0.32909372  0.86156947    -0.08600
C635        C  0.30360773  0.32026771  0.87694689     0.30300
C636        C  0.34679104  0.35715841  0.89307990    -0.20500
C637        C  0.35492612  0.40342744  0.89453938    -0.08600
C638        C  0.31875184  0.41215072  0.88001895     0.30300
F639        F  0.32519597  0.45612697  0.88162261    -0.19100
H640        H  0.24836947  0.38243482  0.85035350     0.18600
H641        H  0.37373922  0.34931218  0.90549468     0.18600
F642        F  0.29635147  0.27593721  0.87707224    -0.19100
C643        C  0.05702743  0.33990024  0.59053004    -0.20500
C644        C  0.08402552  0.35609506  0.63491951    -0.08600
C645        C  0.09961618  0.40184685  0.65267043     0.30300
C646        C  0.08745129  0.43105290  0.62615607    -0.20500
C647        C  0.05927776  0.41435532  0.58235371    -0.08600
C648        C  0.04470169  0.36878724  0.56422382     0.30300
F649        F  0.01849600  0.35218480  0.52090789    -0.19100
H650        H  0.04559149  0.30492330  0.57640898     0.18600
H651        H  0.09861649  0.46586417  0.64060129     0.18600
F652        F  0.12636965  0.41794588  0.69564700    -0.19100
C653        C  0.05734745  0.33527640  0.91297117    -0.20500
C654        C  0.08637844  0.34793120  0.87004651    -0.08600
C655        C  0.10853278  0.39433893  0.85149934     0.30300
C656        C  0.09954208  0.42735277  0.87465415    -0.20500
C657        C  0.06848194  0.41388363  0.91622076    -0.08600
C658        C  0.04873103  0.36802774  0.93626946     0.30300
F659        F  0.01962740  0.35439980  0.97767086    -0.19100
H660        H  0.04066300  0.29980042  0.92768480     0.18600
H661        H  0.11481177  0.46231873  0.85880145     0.18600
F662        F  0.13767461  0.40707186  0.81016779    -0.19100
C663        C  0.16281098  0.60652249  0.17014743    -0.20500
C664        C  0.15931903  0.57815293  0.12802214    -0.08600
C665        C  0.19921794  0.57373215  0.11672848     0.30300
C666        C  0.24032528  0.59556826  0.14769074    -0.20500
C667        C  0.24358621  0.62327455  0.19051442    -0.08600
C668        C  0.20444001  0.62965294  0.19999290     0.30300
F669        F  0.20691599  0.65996953  0.23662337    -0.19100
H670        H  0.13346671  0.61187298  0.17923169     0.18600
H671        H  0.26958801  0.59012755  0.13850740     0.18600
F672        F  0.19792691  0.54686991  0.07666896    -0.19100
C673        C  0.18800325  0.62518989  0.37145279    -0.20500
C674        C  0.15755878  0.57632902  0.37007216    -0.08600
C675        C  0.17080965  0.55005753  0.33822753     0.30300
C676        C  0.21314357  0.57212414  0.30906493    -0.20500
C677        C  0.24340148  0.62111219  0.31015081    -0.08600
C678        C  0.22974438  0.64729784  0.34152446     0.30300
F679        F  0.25473082  0.69469923  0.34020267    -0.19100
H680        H  0.17846201  0.64664666  0.39436256     0.18600
H681        H  0.22221255  0.55084506  0.28520860     0.18600
F682        F  0.14311929  0.50280246  0.33586144    -0.19100
C683        C  0.37971168  0.57497203  0.20157836    -0.20500
C684        C  0.38170415  0.61740195  0.18710730    -0.08600
C685        C  0.40010650  0.63409912  0.13719452     0.30300
C686        C  0.41734624  0.61100837  0.10533442    -0.20500
C687        C  0.41802172  0.57057466  0.12146317    -0.08600
C688        C  0.39878193  0.55296181  0.17052720     0.30300
F689        F  0.39747021  0.51367045  0.18848128    -0.19100
H690        H  0.36316935  0.55824185  0.23733967     0.18600
H691        H  0.43138392  0.62574640  0.06796725     0.18600
F692        F  0.40248560  0.67338432  0.11833269    -0.19100
C693        C  0.38256261  0.57653208  0.38967492    -0.20500
C694        C  0.42570895  0.57884241  0.37746348    -0.08600
C695        C  0.44870778  0.60321160  0.33207436     0.30300
C696        C  0.42942218  0.62462412  0.30070686    -0.20500
C697        C  0.38510993  0.62055424  0.31145206    -0.08600
C698        C  0.36222976  0.59622730  0.35709568     0.30300
F699        F  0.31913353  0.58987840  0.36980874    -0.19100
H700        H  0.36357224  0.55797548  0.42383040     0.18600
H701        H  0.44918678  0.64412264  0.26733903     0.18600
F702        F  0.49070990  0.60728058  0.31834398    -0.19100
C703        C  0.41846444  0.77427123  0.15317375    -0.20500
C704        C  0.38475814  0.76500429  0.19201184    -0.08600
C705        C  0.37113270  0.79914514  0.19967667     0.30300
C706        C  0.39111872  0.84091515  0.17022843    -0.20500
C707        C  0.42408939  0.84961600  0.13063757    -0.08600
C708        C  0.43730773  0.81529883  0.12255726     0.30300
F709        F  0.47013512  0.82229969  0.08642311    -0.19100
H710        H  0.43172156  0.75049244  0.14757826     0.18600
H711        H  0.38004041  0.86631640  0.17788047     0.18600
F712        F  0.33848770  0.79227102  0.23599144    -0.19100
C713        C  0.39354571  0.80872085  0.39175645    -0.20500
C714        C  0.43235489  0.85039308  0.37331068    -0.08600
C715        C  0.45114525  0.84778695  0.32540560     0.30300
C716        C  0.43118612  0.80562495  0.29689839    -0.20500
C717        C  0.38990978  0.76451076  0.31307758    -0.08600
C718        C  0.37261883  0.76679510  0.36249385     0.30300
F719        F  0.33497510  0.72893897  0.38321952    -0.19100
H720        H  0.37841809  0.80877438  0.42870950     0.18600
H721        H  0.44863913  0.80556257  0.26171640     0.18600
F722        F  0.48985257  0.88598955  0.30629361    -0.19100
loop_ 
_geom_bond_atom_site_label_1 
_geom_bond_atom_site_label_2 
_geom_bond_distance 
_geom_bond_site_symmetry_2 
_ccdc_geom_bond_type 
C1            H2   1.106       .  S
C1            C7   1.576       .  S
C1            C6   1.564       .  S
C1            C5   1.574       .  S
C3            H4   1.104       .  S
C3            C9   1.566       .  S
C3            C8   1.570       .  S
C3           C10   1.573       .  S
C5            C8   1.396       .  D
C5          C704   1.534       .  S
C6            C9   1.385       .  D
C6          C667   1.532       .  S
C7           C10   1.405       .  D
C7          C684   1.555       .  S
C8          C717   1.552       .  S
C9          C677   1.526       .  S
C10         C697   1.540       .  S
N11          C16   1.355       .  A
N11          C15   1.351       .  A
N11          H43   1.042       .  S
N12          C19   1.341       .  A
N12          C20   1.350       .  A
N13          C18   1.345       .  A
N13          C17   1.349       .  A
N13          H44   1.045       .  S
N14          C21   1.336       .  A
N14          C22   1.345       .  A
C15          C23   1.385       .  A
C15          C31   1.404       .  A
C16          C32   1.410       .  A
C16          C24   1.386       .  A
C17          C25   1.387       .  A
C17          C34   1.403       .  A
C18          C33   1.405       .  A
C18          C26   1.388       .  A
C19          C31   1.401       .  A
C19          C27   1.387       .  A
C20          C34   1.403       .  A
C20          C28   1.386       .  A
C21          C29   1.389       .  A
C21          C32   1.401       .  A
C22          C30   1.385       .  A
C22          C33   1.402       .  A
C23          C24   1.369       .  A
C23          H35   1.083       .  S
C24          H36   1.083       .  S
C25          C26   1.373       .  A
C25          H37   1.083       .  S
C26          H38   1.083       .  S
C27          C28   1.370       .  A
C27          H39   1.082       .  S
C28          H40   1.083       .  S
C29          C30   1.375       .  A
C29          H41   1.082       .  S
C30          H42   1.082       .  S
C31         C654   1.467       .  S
C32         C644   1.466       .  S
C33         C624   1.487       .  S
C34         C634   1.477       .  S
N45          C50   1.353       .  A
N45          C49   1.352       .  A
N45          H77   1.041       .  S
N46          C53   1.344       .  A
N46          C54   1.346       .  A
N47          C52   1.351       .  A
N47          C51   1.352       .  A
N47          H78   1.040       .  S
N48          C55   1.345       .  A
N48          C56   1.344       .  A
C49          C57   1.388       .  A
C49          C65   1.410       .  A
C50          C66   1.411       .  A
C50          C58   1.388       .  A
C51          C59   1.389       .  A
C51          C68   1.413       .  A
C52          C67   1.407       .  A
C52          C60   1.387       .  A
C53          C65   1.398       .  A
C53          C61   1.386       .  A
C54          C68   1.400       .  A
C54          C62   1.384       .  A
C55          C63   1.386       .  A
C55          C66   1.398       .  A
C56          C64   1.386       .  A
C56          C67   1.397       .  A
C57          C58   1.364       .  A
C57          H69   1.082       .  S
C58          H70   1.082       .  S
C59          C60   1.364       .  A
C59          H71   1.082       .  S
C60          H72   1.082       .  S
C61          C62   1.370       .  A
C61          H73   1.083       .  S
C62          H74   1.082       .  S
C63          C64   1.369       .  A
C63          H75   1.083       .  S
C64          H76   1.083       .  S
C65         C614   1.469       .  S
C66         C594   1.470       .  S
C67         C587   1.464       .  S
C68         C604   1.474       .  S
N79          C84   1.345       .  A
N79          C83   1.344       .  A
N79         H111   1.037       .  S
N80          C87   1.353       .  A
N80          C88   1.354       .  A
N81          C86   1.343       .  A
N81          C85   1.343       .  A
N81         H112   1.036       .  S
N82          C89   1.349       .  A
N82          C90   1.348       .  A
C83          C91   1.390       .  A
C83          C99   1.401       .  A
C84         C100   1.403       .  A
C84          C92   1.383       .  A
C85          C93   1.388       .  A
C85         C102   1.399       .  A
C86         C101   1.403       .  A
C86          C94   1.384       .  A
C87          C99   1.414       .  A
C87          C95   1.387       .  A
C88         C102   1.412       .  A
C88          C96   1.385       .  A
C89          C97   1.386       .  A
C89         C100   1.408       .  A
C90          C98   1.388       .  A
C90         C101   1.411       .  A
C91          C92   1.379       .  A
C91         H103   1.082       .  S
C92         H104   1.082       .  S
C93          C94   1.379       .  A
C93         H105   1.082   1_655  S
C94         H106   1.082   1_655  S
C95          C96   1.373       .  A
C95         H107   1.083       .  S
C96         H108   1.083       .  S
C97          C98   1.370       .  A
C97         H109   1.082       .  S
C98         H110   1.082       .  S
C99         C564   1.481       .  S
C100        C577   1.473       .  S
C101        C557   1.472       .  S
C102        C544   1.486       .  S
O113        C129   1.284       .  A
O113       Zn119   2.068       .  S
C114        C664   1.519       .  S
C114        O130   1.282       .  A
C114        O127   1.278       .  A
O115        C128   1.264       .  A
O115       Cd122   1.968   1_455  S
O116        C134   1.282       .  A
O116       Cd125   2.089   1_655  S
O117        C131   1.271       .  A
O117       Cd121   2.011   1_554  S
O118        C129   1.265   1_655  A
O118       Cd121   1.985       .  S
Zn119       O130   2.112   1_556  S
Zn119       O132   2.068       .  S
Zn119       O124   1.982   1_456  S
O120        C131   1.277       .  A
O120       Cd125   2.079   1_655  S
Cd121       O123   2.124       .  S
Cd121       O124   1.978   1_556  S
Cd122       O126   2.120       .  S
Cd122       O135   2.026   1_556  S
Cd122       O124   1.979   1_556  S
O123        C133   1.276       .  A
O124       Cd125   2.013   1_655  S
Cd125       O127   2.128       .  S
O126        C133   1.274       .  A
C128        C657   1.460       .  S
C128        O132   1.282       .  A
C129        C617   1.475       .  S
C131        C554   1.464       .  S
C133        C534   1.518       .  S
C134        C527   1.469       .  S
C134        O135   1.273       .  A
O136        C152   1.280       .  A
O136       Zn142   2.107       .  S
C137        C597   1.472       .  S
C137        O153   1.281       .  A
C137        O150   1.268   1_455  A
O138        C151   1.269   1_655  A
O138       Cd145   1.999       .  S
O139        C157   1.276       .  A
O139       Cd148   2.126       .  S
O140        C154   1.280       .  A
O140       Cd144   2.096   1_655  S
O141        C152   1.277       .  A
O141       Cd144   2.129       .  S
Zn142       O153   2.040       .  S
Zn142       O155   2.048       .  S
Zn142       O147   1.968   1_455  S
O143        C154   1.272       .  A
O143       Cd148   2.042       .  S
Cd144       O146   2.089   1_455  S
Cd144       O147   2.008   1_455  S
Cd145       O149   2.024       .  S
Cd145       O158   2.128       .  S
Cd145       O147   1.980       .  S
O146        C156   1.280       .  A
O147       Cd148   1.988       .  S
Cd148       O150   2.002       .  S
O149        C156   1.271       .  A
C151        C647   1.459       .  S
C151        O155   1.281       .  A
C152        C674   1.516       .  S
C154        C547   1.464       .  S
C156        C507   1.457       .  S
C157        C514   1.518       .  S
C157        O158   1.277       .  A
N159        C164   1.343       .  A
N159        C163   1.344       .  A
N159        H191   1.041       .  S
N160        C167   1.352       .  A
N160        C168   1.350       .  A
N161        C166   1.346       .  A
N161        C165   1.345       .  A
N161        H192   1.037       .  S
N162        C169   1.349       .  A
N162        C170   1.349       .  A
C163        C171   1.389       .  A
C163        C179   1.400       .  A
C164        C180   1.397       .  A
C164        C172   1.381       .  A
C165        C173   1.387       .  A
C165        C182   1.400       .  A
C166        C181   1.405       .  A
C166        C174   1.385       .  A
C167        C179   1.413       .  A
C167        C175   1.387       .  A
C168        C182   1.411       .  A
C168        C176   1.386       .  A
C169        C177   1.386       .  A
C169        C180   1.408       .  A
C170        C178   1.387       .  A
C170        C181   1.409       .  A
C171        C172   1.380       .  A
C171        H183   1.081   1_545  S
C172        H184   1.082   1_545  S
C173        C174   1.376       .  A
C173        H185   1.082   1_655  S
C174        H186   1.083   1_655  S
C175        C176   1.375       .  A
C175        H187   1.083       .  S
C176        H188   1.083       .  S
C177        C178   1.368       .  A
C177        H189   1.081       .  S
C178        H190   1.081       .  S
C179        C484   1.493       .  S
C180        C494   1.474       .  S
C181        C524   1.478       .  S
C182        C504   1.482       .  S
N193        C198   1.344       .  A
N193        C197   1.344       .  A
N193        H225   1.038       .  S
N194        C201   1.350       .  A
N194        C202   1.351       .  A
N195        C200   1.346       .  A
N195        C199   1.348       .  A
N195        H226   1.035       .  S
N196        C203   1.355       .  A
N196        C204   1.352       .  A
C197        C205   1.385       .  A
C197        C213   1.403       .  A
C198        C214   1.399       .  A
C198        C206   1.388       .  A
C199        C207   1.383       .  A
C199        C216   1.408       .  A
C200        C215   1.406       .  A
C200        C208   1.390       .  A
C201        C213   1.412       .  A
C201        C209   1.387       .  A
C202        C216   1.410       .  A
C202        C210   1.386       .  A
C203        C211   1.383       .  A
C203        C214   1.411       .  A
C204        C212   1.390       .  A
C204        C215   1.415       .  A
C205        C206   1.378       .  A
C205        H217   1.082   1_545  S
C206        H218   1.082   1_545  S
C207        C208   1.379       .  A
C207        H219   1.082       .  S
C208        H220   1.083       .  S
C209        C210   1.365       .  A
C209        H221   1.081       .  S
C210        H222   1.082       .  S
C211        C212   1.371       .  A
C211        H223   1.083       .  S
C212        H224   1.082       .  S
C213        C467   1.476       .  S
C214        C474   1.485       .  S
C215        C447   1.476       .  S
C216        C454   1.480       .  S
N227        C232   1.344       .  A
N227        C231   1.346       .  A
N227        H259   1.037       .  S
N228        C235   1.344       .  A
N228        C236   1.345       .  A
N229        C234   1.344       .  A
N229        C233   1.346       .  A
N229        H260   1.035       .  S
N230        C237   1.351       .  A
N230        C238   1.349       .  A
C231        C239   1.386       .  A
C231        C247   1.405       .  A
C232        C248   1.399       .  A
C232        C240   1.386       .  A
C233        C241   1.385       .  A
C233        C250   1.406       .  A
C234        C249   1.401       .  A
C234        C242   1.388       .  A
C235        C247   1.403       .  A
C235        C243   1.387       .  A
C236        C250   1.403       .  A
C236        C244   1.387       .  A
C237        C245   1.384       .  A
C237        C248   1.403       .  A
C238        C246   1.388       .  A
C238        C249   1.406       .  A
C239        C240   1.376       .  A
C239        H251   1.082       .  S
C240        H252   1.082       .  S
C241        C242   1.375       .  A
C241        H253   1.082   1_565  S
C242        H254   1.083   1_565  S
C243        C244   1.367       .  A
C243        H255   1.082       .  S
C244        H256   1.082       .  S
C245        C246   1.367       .  A
C245        H257   1.083       .  S
C246        H258   1.082       .  S
C247        C427   1.462       .  S
C248        C404   1.469       .  S
C249        C414   1.466       .  S
C250        C434   1.464       .  S
O261        C277   1.282       .  A
O261       Zn267   2.051       .  S
C262        C714   1.525       .  S
C262        O278   1.282       .  A
C262        O275   1.277       .  A
O263        C276   1.267   1_545  A
O263       Cd270   1.986       .  S
O264        C282   1.275       .  A
O264       Cd273   2.066       .  S
O265        C279   1.275       .  A
O265       Cd269   2.029       .  S
O266        C277   1.266   1_545  A
O266       Cd269   1.987       .  S
Zn267       O278   2.123       .  S
Zn267       O280   2.053       .  S
Zn267       O272   1.967   1_565  S
O268        C279   1.280       .  A
O268       Cd273   2.085       .  S
Cd269       O271   2.142       .  S
Cd269       O272   1.974       .  S
Cd270       O274   2.122       .  S
Cd270       O283   2.041       .  S
Cd270       O272   1.984       .  S
O271        C281   1.279       .  A
O272       Cd273   2.007       .  S
Cd273       O275   2.120   1_545  S
O274        C281   1.275       .  A
C276        C417   1.463       .  S
C276        O280   1.284       .  A
C277        C584   1.471       .  S
C279        C464   1.470       .  S
C281        C394   1.520       .  S
C282        C487   1.461       .  S
C282        O283   1.272       .  A
O284        C300   1.286       .  A
O284       Zn290   2.144       .  S
C285        C627   1.476       .  S
C285        O301   1.284       .  A
C285        O298   1.268       .  A
O286        C299   1.270       .  A
O286       Cd293   2.008       .  S
O287        C305   1.279       .  A
O287       Cd296   2.143       .  S
O288        C302   1.281       .  A
O288       Cd292   2.085       .  S
O289        C300   1.275       .  A
O289       Cd292   2.104       .  S
Zn290       O301   2.077       .  S
Zn290       O303   2.050       .  S
Zn290       O295   1.988       .  S
O291        C302   1.277       .  A
O291       Cd296   2.049       .  S
Cd292       O294   2.065       .  S
Cd292       O295   2.004       .  S
Cd293       O297   2.036       .  S
Cd293       O306   2.118       .  S
Cd293       O295   1.994       .  S
O294        C304   1.274       .  A
O295       Cd296   1.980       .  S
Cd296       O298   1.996       .  S
O297        C304   1.270       .  A
C299        C407   1.469       .  S
C299        O303   1.282       .  A
C300        C694   1.524       .  S
C302        C457   1.475       .  S
C304        C567   1.455       .  S
C305        C384   1.523       .  S
C305        O306   1.276       .  A
O307        C323   1.283       .  A
O307       Zn313   2.123   1_554  S
C308        C607   1.479       .  S
C308        O324   1.283       .  A
C308        O321   1.269   1_565  A
O309        C322   1.269   1_545  A
O309       Cd316   1.994       .  S
O310        C328   1.277       .  A
O310       Cd319   2.130       .  S
O311        C325   1.278       .  A
O311       Cd315   2.078       .  S
O312        C323   1.278       .  A
O312       Cd315   2.129   1_565  S
Zn313       O324   2.062       .  S
Zn313       O326   2.047       .  S
Zn313       O318   1.963   1_566  S
O314        C325   1.272       .  A
O314       Cd319   2.040   1_554  S
Cd315       O317   2.096       .  S
Cd315       O318   2.006       .  S
Cd316       O320   2.030   1_556  S
Cd316       O329   2.149       .  S
Cd316       O318   1.976   1_556  S
O317        C327   1.282       .  A
O318       Cd319   1.986   1_554  S
Cd319       O321   2.009       .  S
O320        C327   1.274       .  A
C322        C437   1.463       .  S
C322        O326   1.282       .  A
C323        C707   1.523       .  S
C325        C477   1.459       .  S
C327        C497   1.470       .  S
C328        C377   1.528       .  S
C328        O329   1.281       .  A
O330        C346   1.280       .  A
O330       Zn336   2.070       .  S
C331        C687   1.529       .  S
C331        O347   1.285       .  A
C331        O344   1.279       .  A
O332        C345   1.267       .  A
O332       Cd339   1.988       .  S
O333        C351   1.282       .  A
O333       Cd342   2.103       .  S
O334        C348   1.271       .  A
O334       Cd338   2.013   1_554  S
O335        C346   1.266       .  A
O335       Cd338   2.010       .  S
Zn336       O347   2.123   1_556  S
Zn336       O349   2.050       .  S
Zn336       O341   1.972   1_556  S
O337        C348   1.283       .  A
O337       Cd342   2.091       .  S
Cd338       O340   2.108       .  S
Cd338       O341   1.975   1_556  S
Cd339       O343   2.124       .  S
Cd339       O352   2.014   1_556  S
Cd339       O341   1.967   1_556  S
O340        C350   1.274       .  A
O341       Cd342   2.004       .  S
Cd342       O344   2.128       .  S
O343        C350   1.277       .  A
C345        C424   1.460       .  S
C345        O349   1.282       .  A
C346        C637   1.471       .  S
C348        C444   1.459       .  S
C350        C364   1.513       .  S
C351        C574   1.474       .  S
C351        O352   1.272       .  A
C353        H354   1.111       .  S
C353        C359   1.552       .  S
C353        C358   1.558       .  S
C353        C357   1.558       .  S
C355        H356   1.111       .  S
C355        C361   1.559       .  S
C355        C360   1.559       .  S
C355        C362   1.558       .  S
C357        C360   1.391       .  D
C357        C397   1.517       .  S
C358        C361   1.389       .  D
C358        C517   1.519       .  S
C359        C362   1.386       .  D
C359        C387   1.516       .  S
C360        C374   1.524       .  S
C361        C537   1.518       .  S
C362        C367   1.512       .  S
C363        C364   1.412       .  A
C363        C368   1.414       .  A
C363        H370   1.083       .  S
C364        C365   1.413       .  A
C365        C366   1.412       .  A
C365        F372   1.357       .  S
C366        C367   1.408       .  A
C366        H371   1.083       .  S
C367        C368   1.409       .  A
C368        F369   1.357       .  S
C373        C374   1.411       .  A
C373        C378   1.417       .  A
C373        H380   1.083       .  S
C374        C375   1.411       .  A
C375        C376   1.418       .  A
C375        F382   1.357       .  S
C376        C377   1.416       .  A
C376        H381   1.083       .  S
C377        C378   1.415       .  A
C378        F379   1.357       .  S
C383        C384   1.414       .  A
C383        C388   1.418       .  A
C383        H390   1.083       .  S
C384        C385   1.416       .  A
C385        C386   1.414       .  A
C385        F392   1.357       .  S
C386        C387   1.408       .  A
C386        H391   1.083       .  S
C387        C388   1.410       .  A
C388        F389   1.357       .  S
C393        C394   1.416       .  A
C393        C398   1.418       .  A
C393        H400   1.083       .  S
C394        C395   1.412       .  A
C395        C396   1.413       .  A
C395        F402   1.357       .  S
C396        C397   1.410       .  A
C396        H401   1.083       .  S
C397        C398   1.410       .  A
C398        F399   1.357       .  S
C403        C404   1.406       .  A
C403        C408   1.393       .  A
C403        H410   1.084       .  S
C404        C405   1.394       .  A
C405        C406   1.392       .  A
C405        F412   1.357       .  S
C406        C407   1.412       .  A
C406        H411   1.084       .  S
C407        C408   1.402       .  A
C408        F409   1.357       .  S
C413        C414   1.391       .  A
C413        C418   1.390       .  A
C413        H420   1.083       .  S
C414        C415   1.408       .  A
C415        C416   1.388       .  A
C415        F422   1.358       .  S
C416        C417   1.397       .  A
C416        H421   1.083       .  S
C417        C418   1.417       .  A
C418        F419   1.358   1_565  S
C423        C424   1.410       .  A
C423        C428   1.387       .  A
C423        H430   1.084       .  S
C424        C425   1.399       .  A
C425        C426   1.392       .  A
C425        F432   1.357       .  S
C426        C427   1.405       .  A
C426        H431   1.084       .  S
C427        C428   1.393       .  A
C428        F429   1.358       .  S
C433        C434   1.406       .  A
C433        C438   1.396       .  A
C433        H440   1.083       .  S
C434        C435   1.392       .  A
C435        C436   1.385       .  A
C435        F442   1.358       .  S
C436        C437   1.409       .  A
C436        H441   1.084   1_565  S
C437        C438   1.401       .  A
C438        F439   1.357       .  S
C443        C444   1.410       .  A
C443        C448   1.395       .  A
C443        H450   1.084       .  S
C444        C445   1.396       .  A
C445        C446   1.388       .  A
C445        F452   1.357       .  S
C446        C447   1.408       .  A
C446        H451   1.083       .  S
C447        C448   1.398       .  A
C448        F449   1.357       .  S
C453        C454   1.406       .  A
C453        C458   1.398       .  A
C453        H460   1.082       .  S
C454        C455   1.400       .  A
C455        C456   1.394       .  A
C455        F462   1.357       .  S
C456        C457   1.408       .  A
C456        H461   1.083       .  S
C457        C458   1.405       .  A
C458        F459   1.357       .  S
C463        C464   1.408       .  A
C463        C468   1.388       .  A
C463        H470   1.084       .  S
C464        C465   1.404       .  A
C465        C466   1.398       .  A
C465        F472   1.357       .  S
C466        C467   1.408       .  A
C466        H471   1.084       .  S
C467        C468   1.398       .  A
C468        F469   1.358       .  S
C473        C474   1.400       .  A
C473        C478   1.396       .  A
C473        H480   1.083       .  S
C474        C475   1.413       .  A
C475        C476   1.395       .  A
C475        F482   1.358       .  S
C476        C477   1.395       .  A
C476        H481   1.083       .  S
C477        C478   1.408       .  A
C478        F479   1.358   1_545  S
C483        C484   1.404       .  A
C483        C488   1.396       .  A
C483        H490   1.081   1_545  S
C484        C485   1.416       .  A
C485        C486   1.392       .  A
C485        F492   1.355       .  S
C486        C487   1.394       .  A
C486        H491   1.083       .  S
C487        C488   1.407       .  A
C488        F489   1.358   1_545  S
C493        C494   1.395       .  A
C493        C498   1.390       .  A
C493        H500   1.084       .  S
C494        C495   1.411       .  A
C495        C496   1.399       .  A
C495        F502   1.358       .  S
C496        C497   1.400       .  A
C496        H501   1.083       .  S
C497        C498   1.412       .  A
C498        F499   1.358       .  S
C503        C504   1.397       .  A
C503        C508   1.395       .  A
C503        H510   1.083   1_655  S
C504        C505   1.412       .  A
C505        C506   1.397       .  A
C505        F512   1.357       .  S
C506        C507   1.396       .  A
C506        H511   1.083       .  S
C507        C508   1.407       .  A
C508        F509   1.358   1_655  S
C513        C514   1.414       .  A
C513        C518   1.417       .  A
C513        H520   1.083       .  S
C514        C515   1.413       .  A
C515        C516   1.413       .  A
C515        F522   1.357       .  S
C516        C517   1.409       .  A
C516        H521   1.083       .  S
C517        C518   1.412       .  A
C518        F519   1.357       .  S
C523        C524   1.407       .  A
C523        C528   1.394       .  A
C523        H530   1.084       .  S
C524        C525   1.398       .  A
C525        C526   1.392       .  A
C525        F532   1.358       .  S
C526        C527   1.410       .  A
C526        H531   1.082       .  S
C527        C528   1.401       .  A
C528        F529   1.357       .  S
C533        C534   1.410       .  A
C533        C538   1.412       .  A
C533        H540   1.083       .  S
C534        C535   1.417       .  A
C535        C536   1.417       .  A
C535        F542   1.357       .  S
C536        C537   1.409       .  A
C536        H541   1.083       .  S
C537        C538   1.412       .  A
C538        F539   1.357       .  S
C543        C544   1.399       .  A
C543        C548   1.398       .  A
C543        H550   1.083   1_655  S
C544        C545   1.413       .  A
C545        C546   1.396       .  A
C545        F552   1.357       .  S
C546        C547   1.397       .  A
C546        H551   1.083       .  S
C547        C548   1.408       .  A
C548        F549   1.358   1_655  S
C553        C554   1.408       .  A
C553        C558   1.386       .  A
C553        H560   1.084       .  S
C554        C555   1.401       .  A
C555        C556   1.398       .  A
C555        F562   1.357       .  S
C556        C557   1.409       .  A
C556        H561   1.084       .  S
C557        C558   1.396       .  A
C558        F559   1.358       .  S
C563        C564   1.399       .  A
C563        C568   1.396       .  A
C563        H570   1.083       .  S
C564        C565   1.412       .  A
C565        C566   1.392       .  A
C565        F572   1.357       .  S
C566        C567   1.394       .  A
C566        H571   1.083       .  S
C567        C568   1.408       .  A
C568        F569   1.358       .  S
C573        C574   1.411       .  A
C573        C578   1.389       .  A
C573        H580   1.084       .  S
C574        C575   1.403       .  A
C575        C576   1.400       .  A
C575        F582   1.357       .  S
C576        C577   1.407       .  A
C576        H581   1.084       .  S
C577        C578   1.396       .  A
C578        F579   1.358       .  S
C583        C584   1.401       .  A
C583        C588   1.394       .  A
C583        H590   1.083       .  S
C584        C585   1.419       .  A
C585        C586   1.385       .  A
C585        F592   1.358   1_565  S
C586        C587   1.388       .  A
C586        H591   1.084       .  S
C587        C588   1.406       .  A
C588        F589   1.358       .  S
C593        C594   1.393       .  A
C593        C598   1.388       .  A
C593        H600   1.084       .  S
C594        C595   1.406       .  A
C595        C596   1.393       .  A
C595        F602   1.358       .  S
C596        C597   1.402       .  A
C596        H601   1.083       .  S
C597        C598   1.416       .  A
C598        F599   1.358   1_455  S
C603        C604   1.394       .  A
C603        C608   1.391       .  A
C603        H610   1.083       .  S
C604        C605   1.406       .  A
C605        C606   1.396       .  A
C605        F612   1.358       .  S
C606        C607   1.402       .  A
C606        H611   1.083       .  S
C607        C608   1.418       .  A
C608        F609   1.358   1_565  S
C613        C614   1.390       .  A
C613        C618   1.389       .  A
C613        H620   1.084   1_455  S
C614        C615   1.406       .  A
C615        C616   1.393       .  A
C615        F622   1.358       .  S
C616        C617   1.400       .  A
C616        H621   1.083       .  S
C617        C618   1.421       .  A
C618        F619   1.358   1_455  S
C623        C624   1.396       .  A
C623        C628   1.387       .  A
C623        H630   1.084       .  S
C624        C625   1.416       .  A
C625        C626   1.400       .  A
C625        F632   1.357       .  S
C626        C627   1.400       .  A
C626        H631   1.083       .  S
C627        C628   1.414       .  A
C628        F629   1.358       .  S
C633        C634   1.410       .  A
C633        C638   1.397       .  A
C633        H640   1.084       .  S
C634        C635   1.394       .  A
C635        C636   1.391       .  A
C635        F642   1.358       .  S
C636        C637   1.411       .  A
C636        H641   1.084       .  S
C637        C638   1.401       .  A
C638        F639   1.357       .  S
C643        C644   1.392       .  A
C643        C648   1.386       .  A
C643        H650   1.084       .  S
C644        C645   1.407       .  A
C645        C646   1.394       .  A
C645        F652   1.358       .  S
C646        C647   1.398       .  A
C646        H651   1.083       .  S
C647        C648   1.411       .  A
C648        F649   1.358       .  S
C653        C654   1.389       .  A
C653        C658   1.384       .  A
C653        H660   1.084       .  S
C654        C655   1.411       .  A
C655        C656   1.397       .  A
C655        F662   1.358       .  S
C656        C657   1.396       .  A
C656        H661   1.083       .  S
C657        C658   1.414       .  A
C658        F659   1.357       .  S
C663        C664   1.410       .  A
C663        C668   1.416       .  A
C663        H670   1.083       .  S
C664        C665   1.412       .  A
C665        C666   1.419       .  A
C665        F672   1.356       .  S
C666        C667   1.413       .  A
C666        H671   1.083       .  S
C667        C668   1.416       .  A
C668        F669   1.355       .  S
C673        C674   1.409       .  A
C673        C678   1.416       .  A
C673        H680   1.083       .  S
C674        C675   1.414       .  A
C675        C676   1.419       .  A
C675        F682   1.357       .  S
C676        C677   1.411       .  A
C676        H681   1.083       .  S
C677        C678   1.413       .  A
C678        F679   1.354       .  S
C683        C684   1.418       .  A
C683        C688   1.421       .  A
C683        H690   1.081       .  S
C684        C685   1.424       .  A
C685        C686   1.418       .  A
C685        F692   1.350       .  S
C686        C687   1.408       .  A
C686        H691   1.083       .  S
C687        C688   1.416       .  A
C688        F689   1.357       .  S
C693        C694   1.409       .  A
C693        C698   1.420       .  A
C693        H700   1.083       .  S
C694        C695   1.417       .  A
C695        C696   1.417       .  A
C695        F702   1.357       .  S
C696        C697   1.413       .  A
C696        H701   1.082       .  S
C697        C698   1.421       .  A
C698        F699   1.356       .  S
C703        C704   1.412       .  A
C703        C708   1.419       .  A
C703        H710   1.077       .  S
C704        C705   1.415       .  A
C705        C706   1.419       .  A
C705        F712   1.357       .  S
C706        C707   1.413       .  A
C706        H711   1.083       .  S
C707        C708   1.412       .  A
C708        F709   1.357       .  S
C713        C714   1.409       .  A
C713        C718   1.420       .  A
C713        H720   1.083       .  S
C714        C715   1.413       .  A
C715        C716   1.416       .  A
C715        F722   1.357       .  S
C716        C717   1.417       .  A
C716        H721   1.080       .  S
C717        C718   1.424       .  A
C718        F719   1.352       .  S
