geometry optimzed in LAMMPS
_audit_creation_date              2020-11-30 
_audit_creation_method            'lammps2cif' 
_symmetry_space_group_name_H-M    'P1' 
_symmetry_Int_Tables_number       1 
_symmetry_cell_setting            triclinic 
loop_ 
_symmetry_equiv_pos_as_xyz 
  x,y,z 
_cell_length_a                    44.87092078 
_cell_length_b                    47.35201950867249 
_cell_length_c                    31.871656772578937 
_cell_angle_alpha                 89.90225361915807 
_cell_angle_beta                  89.734245948642 
_cell_angle_gamma                 115.73437404820385 
loop_ 
_atom_site_label 
_atom_site_type_symbol 
_atom_site_fract_x 
_atom_site_fract_y 
_atom_site_fract_z 
_atom_site_charge 
C1          C  0.33095991  0.67760090  0.29340694     0.45600
H2          H  0.33274235  0.67856071  0.32803446    -0.03500
C3          C  0.32729576  0.67570317  0.21246202     0.45600
H4          H  0.32551215  0.67467466  0.17784588    -0.03500
C5          C  0.34995555  0.65966250  0.27342807    -0.17200
C6          C  0.29416198  0.66023040  0.27771709    -0.16900
C7          C  0.34610900  0.71139888  0.27330421    -0.17300
C8          C  0.34830293  0.65894244  0.22977638    -0.17300
C9          C  0.29218631  0.65883270  0.23398755    -0.16800
C10         C  0.34400462  0.71046508  0.22950307    -0.17200
C11         C  0.18089499  0.40704233  0.73651700     0.02400
C12         C  0.18266400  0.41518647  0.77987400     0.02300
C13         C  0.21077638  0.41956276  0.80284433    -0.18200
C14         C  0.23889370  0.42051226  0.78308766     0.02400
C15         C  0.23703523  0.41151405  0.74046293     0.02300
C16         C  0.20689500  0.40177468  0.71932798    -0.18200
H17         H  0.20534833  0.39404666  0.68710673     0.04400
H18         H  0.21217344  0.42589869  0.83572340     0.04400
C19         C  0.18613327  0.74487691  0.72927043     0.02400
C20         C  0.18954662  0.74401899  0.77333874     0.02300
C21         C  0.21708987  0.76730870  0.79261772    -0.18200
C22         C  0.24105651  0.79195260  0.76951345     0.02400
C23         C  0.23751555  0.79327540  0.72530507     0.02300
C24         C  0.20957422  0.76996093  0.70609138    -0.18200
H25         H  0.20662006  0.77069529  0.67241630     0.04400
H26         H  0.21990931  0.76622822  0.82629777     0.04400
C27         C  0.73962995  0.53299407  0.23006473     0.02400
C28         C  0.74089129  0.53974081  0.27318187     0.02300
C29         C  0.76938572  0.54486143  0.29601385    -0.18200
C30         C  0.79517803  0.53982997  0.27757771     0.02400
C31         C  0.79194314  0.52992829  0.23497333     0.02300
C32         C  0.76446323  0.52717002  0.21184364    -0.18200
H33         H  0.76218791  0.52014485  0.17917807     0.04400
H34         H  0.77060099  0.55108767  0.32887052     0.04400
O35         O  0.05280596  0.51247919  0.09496926    -0.80800
O36         O  0.92864819  0.43943481  0.96909667    -0.65500
O37         O  0.01426280  0.47785189  0.02465450    -1.12100
C38         C  0.03385971  0.56745832  0.94925400     1.06100
O39         O  0.93950047  0.47075166  0.91323308    -0.78700
O40         O  0.00614004  0.48481258  0.91356529    -0.66300
Ni41       Ni  0.01655094  0.47135823  0.08367426     1.34900
C42         C  0.03481051  0.49241357  0.92876324     0.84800
O43         O  0.96442933  0.41729306  0.01517086    -0.79200
O44         O  0.98260538  0.42883230  0.08088563    -0.89500
C45         C  0.92034143  0.44641050  0.93349762     0.84400
O46         O  0.98452476  0.48614125  0.09665225    -0.67700
O47         O  0.02017261  0.54636983  0.92189391    -0.87000
C48         C  0.95586122  0.47697949  0.08092371     0.85200
C49         C  0.96784411  0.40905473  0.05215240     1.06800
H50         H  0.96646253  0.50795375  0.99553383     0.38600
O51         O  0.98105234  0.50074463  0.98161807    -1.09700
O52         O  0.04626563  0.51174965  0.95906404    -0.66300
Ni53       Ni  0.02432912  0.51957381  0.00705482     1.26300
O54         O  0.94764437  0.46283965  0.04583898    -0.66500
O55         O  0.03301004  0.56076582  0.98788466    -0.78800
C56         C  0.07374973  0.53439146  0.07223475     0.84600
O57         O  0.06744551  0.53771527  0.03400507    -0.66000
Ni58       Ni  0.98063606  0.50753840  0.92220669     1.27400
Ni59       Ni  0.97154177  0.45846637  0.99782150     1.26100
H60         H  0.02879745  0.47038478  0.01117457     0.39200
O61         O  0.94263714  0.44701590  0.58147693    -0.80800
O62         O  0.07385219  0.53325107  0.48623089    -0.65500
O63         O  0.98389697  0.49654721  0.52957450    -1.12100
C64         C  0.96728365  0.42018541  0.42448468     1.06100
O65         O  0.05504038  0.52723094  0.42159457    -0.78700
O66         O  0.99141555  0.49823362  0.40223927    -0.66300
Ni67       Ni  0.97371725  0.49017191  0.58782494     1.34900
C68         C  0.96549637  0.49684496  0.41997624     0.84800
O69         O  0.04191492  0.55024932  0.54736475    -0.79200
O70         O  0.00315000  0.53296749  0.59856189    -0.89500
C71         C  0.07917936  0.53839320  0.44681116     0.84400
O72         O  0.00635839  0.47638272  0.60199233    -0.67700
O73         O  0.99320478  0.44082854  0.40682331    -0.87000
C74         C  0.03285263  0.47915319  0.58434047     0.85200
C75         C  0.02903579  0.55402966  0.58159693     1.06800
H76         H  0.02307536  0.46480885  0.48541568     0.38600
O77         O  0.01364660  0.47844977  0.47551264    -1.09700
O78         O  0.95425226  0.48281572  0.45464360    -0.66300
Ni79       Ni  0.96827417  0.46047389  0.49444264     1.26300
O80         O  0.04406190  0.49370680  0.55003258    -0.66500
O81         O  0.95451217  0.42481675  0.45811023    -0.78800
C82         C  0.91821262  0.43826805  0.55681739     0.84600
O83         O  0.92352436  0.44355599  0.51756930    -0.66000
Ni84       Ni  0.02343734  0.48385902  0.41693310     1.27400
Ni85       Ni  0.02901558  0.51503542  0.51024196     1.26100
H86         H  0.97421154  0.51007697  0.52046160     0.39200
C87         C  0.84087251  0.22163354  0.22448813     0.02400
C88         C  0.84348887  0.22263763  0.26947694     0.02300
C89         C  0.81410633  0.20379221  0.29178633    -0.18200
C90         C  0.78534340  0.18218034  0.27223251     0.02400
C91         C  0.78430835  0.18002089  0.22811060     0.02300
C92         C  0.81227119  0.19931154  0.20517366    -0.18200
H93         H  0.81062206  0.19878165  0.17118660     0.04400
H94         H  0.81215909  0.20674017  0.32501622     0.04400
C95         C  0.41797651  0.17108601  0.22463720     0.02400
C96         C  0.42217543  0.17453706  0.26870787     0.02300
C97         C  0.42026883  0.20022716  0.28774360    -0.18200
C98         C  0.41869497  0.22447806  0.26393992     0.02400
C99         C  0.41583454  0.22159948  0.21952521     0.02300
C100        C  0.41258846  0.19353669  0.20139560    -0.18200
H101        H  0.40948910  0.19068131  0.16769921     0.04400
H102        H  0.42253946  0.20255833  0.32157671     0.04400
C103        C  0.58116992  0.81327622  0.72742953     0.02400
C104        C  0.58143327  0.81126636  0.77182965     0.02300
C105        C  0.58500880  0.78621952  0.79057743    -0.18200
C106        C  0.58381091  0.76095905  0.76682704     0.02400
C107        C  0.58112282  0.76182064  0.72253069     0.02300
C108        C  0.58213332  0.78893222  0.70344721    -0.18200
H109        H  0.58092406  0.78998135  0.66952997     0.04400
H110        H  0.58589010  0.78509491  0.82453286     0.04400
O111        O  0.47813444  0.94240147  0.41074554    -0.80800
O112        O  0.54912656  0.06710783  0.52432342    -0.65500
O113        O  0.51961218  0.98516206  0.47296300    -1.12100
C114        C  0.43622397  0.95052554  0.57281302     1.06100
O115        O  0.53025166  0.05229782  0.58912015    -0.78700
O116        O  0.52755708  0.99334908  0.58632095    -0.66300
Ni117      Ni  0.51711417  0.98250189  0.41286885     1.34900
C118        C  0.52197634  0.96607493  0.57373454     0.84800
O119        O  0.57539589  0.04201693  0.46841150    -0.79200
O120        O  0.55677892  0.02108568  0.40580732    -0.89500
C121        C  0.54750715  0.07339096  0.56297457     0.84400
O122        O  0.49020034  0.00423390  0.40837058    -0.67700
O123        O  0.45965532  0.96911487  0.59561549    -0.87000
C124        C  0.49624290  0.03090174  0.42366350     0.85200
C125        C  0.57948376  0.04004818  0.42932004     1.06800
H126        H  0.47857480  0.01681810  0.51801146     0.38600
O127        O  0.49299108  0.00779929  0.52710198    -1.09700
O128        O  0.50032654  0.95188323  0.54552636    -0.66300
Ni129      Ni  0.47882270  0.96652134  0.50293400     1.26300
O130        O  0.51492876  0.04242292  0.45531891    -0.66500
O131        O  0.43856136  0.94983043  0.53331623    -0.78800
C132        C  0.46195515  0.92045353  0.43663915     0.84600
O133        O  0.46413453  0.92557139  0.47615777    -0.66000
Ni134      Ni  0.49574594  0.00995161  0.58718986     1.27400
Ni135      Ni  0.53439459  0.02614819  0.49779216     1.26100
H136        H  0.53434927  0.97642803  0.48188496     0.39200
O137        O  0.45341760  0.51550947  0.41320301    -0.80800
O138        O  0.51913641  0.44191335  0.52232455    -0.65500
O139        O  0.46318577  0.47725304  0.47549135    -1.12100
C140        C  0.51401769  0.55885901  0.56879718     1.06100
O141        O  0.52577552  0.46246352  0.58622215    -0.78700
O142        O  0.47048143  0.47247422  0.58737009    -0.66300
Ni143      Ni  0.46000428  0.47784881  0.41558136     1.34900
C144        C  0.44798004  0.48034367  0.57638742     0.84800
O145        O  0.46669030  0.42024334  0.47151835    -0.79200
O146        O  0.46421170  0.43931565  0.40861243    -0.89500
C147        C  0.52865844  0.44351576  0.56026686     0.84400
O148        O  0.50633183  0.50190441  0.40925630    -0.67700
O149        O  0.51065193  0.53599303  0.59233748    -0.87000
C150        C  0.52807427  0.49353785  0.42187056     0.85200
C151        C  0.46073114  0.41661211  0.43259441     1.06800
H152        H  0.53559615  0.51060121  0.51350784     0.38600
O153        O  0.51359616  0.49937013  0.52464342    -1.09700
O154        O  0.45291344  0.50129634  0.54817589    -0.66300
Ni155      Ni  0.48538970  0.51700066  0.50236656     1.26300
O156        O  0.52326038  0.47441900  0.45236319    -0.66500
O157        O  0.50898177  0.55584497  0.52970186    -0.78800
C158        C  0.45112554  0.53524112  0.43845029     0.84600
O159        O  0.45820806  0.53534356  0.47727513    -0.66000
Ni160      Ni  0.51661110  0.49854690  0.58439206     1.27400
Ni161      Ni  0.49114201  0.45954776  0.49808208     1.26100
H162        H  0.44124505  0.46555409  0.48668260     0.39200
O163        O  0.53495603  0.04777445  0.90869484    -0.80800
O164        O  0.46204625  0.92642100  0.02946482    -0.65500
O165        O  0.49184444  0.00643074  0.97158314    -1.12100
C166        C  0.57494541  0.04618705  0.07197068     1.06100
O167        O  0.48144958  0.94315654  0.09306983    -0.78700
O168        O  0.48416978  0.00158383  0.08708419    -0.66300
Ni169      Ni  0.49618144  0.00761120  0.91166227     1.34900
C170        C  0.48687750  0.02693681  0.07046200     0.84800
O171        O  0.43719111  0.94843891  0.96883445    -0.79200
O172        O  0.45706252  0.96866984  0.90561387    -0.89500
C173        C  0.46343281  0.92130624  0.06862671     0.84400
O174        O  0.52362899  0.98629244  0.91126070    -0.67700
O175        O  0.55238730  0.02642718  0.09517870    -0.87000
C176        C  0.51686746  0.95978604  0.92779660     0.85200
C177        C  0.43455608  0.94912965  0.92921151     1.06800
H178        H  0.53402395  0.97814852  0.01979378     0.38600
O179        O  0.51892375  0.98659470  0.02841489    -1.09700
O180        O  0.50859181  0.04109575  0.04223712    -0.66300
Ni181      Ni  0.53189491  0.02732278  0.00180978     1.26300
O182        O  0.49778056  0.94907423  0.95955010    -0.66500
O183        O  0.57190026  0.04701493  0.03253781    -0.78800
C184        C  0.54576379  0.07135639  0.93302620     0.84600
O185        O  0.54368109  0.06729302  0.97282018    -0.66000
Ni186      Ni  0.51622332  0.98544521  0.08863717     1.27400
Ni187      Ni  0.47743389  0.96638180  0.99938858     1.26100
H188        H  0.47651030  0.01502956  0.97863663     0.39200
O189        O  0.52217458  0.46732596  0.90803286    -0.80800
O190        O  0.47572142  0.54662834  0.03610297    -0.65500
O191        O  0.52316997  0.50810408  0.97450418    -1.12100
C192        C  0.47543345  0.42335467  0.06373958     1.06100
O193        O  0.45716698  0.51444585  0.09074846    -0.78700
O194        O  0.51674506  0.50983247  0.08688614    -0.66300
Ni195      Ni  0.52148216  0.50792242  0.91492783     1.34900
C196        C  0.53979969  0.50371878  0.07246190     0.84800
O197        O  0.52639836  0.56705441  0.97941690    -0.79200
O198        O  0.52277608  0.54918205  0.91387769    -0.89500
C199        C  0.46011880  0.53891172  0.07116328     0.84400
O200        O  0.47451771  0.48836975  0.91499985    -0.67700
O201        O  0.48103389  0.44565562  0.08922726    -0.87000
C202        C  0.45632824  0.49997292  0.93083460     0.85200
C203        C  0.53249588  0.57161664  0.94019807     1.06800
H204        H  0.45216267  0.47471570  0.01383154     0.38600
O205        O  0.47391438  0.48491980  0.02566742    -1.09700
O206        O  0.53422121  0.48278850  0.04424140    -0.66300
Ni207      Ni  0.50153513  0.46806140  0.99953880     1.26300
O208        O  0.46544397  0.51887754  0.96164684    -0.66500
O209        O  0.47832548  0.42791639  0.02458111    -0.78800
C210        C  0.53283114  0.45186295  0.93141031     0.84600
O211        O  0.52976089  0.45236126  0.97121037    -0.66000
Ni212      Ni  0.47096078  0.48133989  0.08535059     1.27400
Ni213      Ni  0.49907596  0.52700844  0.00393971     1.26100
H214        H  0.54602888  0.51863110  0.98260400     0.39200
C215        C  0.66567098  0.31688066  0.78752937     0.45600
H216        H  0.66620914  0.31705951  0.82224593    -0.03500
C217        C  0.66462727  0.31625864  0.70643031     0.45600
H218        H  0.66423602  0.31595712  0.67171439    -0.03500
C219        C  0.64491062  0.33369289  0.76922868    -0.17200
C220        C  0.70140877  0.33419623  0.76774015    -0.16900
C221        C  0.64990158  0.28248297  0.76938012    -0.17300
C222        C  0.64470357  0.33356978  0.72542650    -0.17300
C223        C  0.70070692  0.33344809  0.72402214    -0.16800
C224        C  0.64918665  0.28227493  0.72560368    -0.17200
C225        C  0.54887069  0.43292996  0.91048757     0.01400
C226        C  0.54340579  0.40261037  0.92484420     0.04300
C227        C  0.55831404  0.38529024  0.90399172    -0.11800
C228        C  0.57811098  0.39728623  0.86763076     0.23600
C229        C  0.58323946  0.42720657  0.85303211    -0.12400
C230        C  0.56948662  0.44508111  0.87448120     0.05000
C231        C  0.59417410  0.37906720  0.84495321     0.27400
C232        C  0.62713332  0.38485049  0.85338309    -0.13100
C233        C  0.64325161  0.36976883  0.83007665     0.05500
C234        C  0.62676015  0.34821340  0.79714941    -0.09000
C235        C  0.59268672  0.34100451  0.79113779     0.06300
C236        C  0.57706499  0.35681558  0.81387900    -0.13400
Br237      Br  0.60936269  0.44373198  0.80292059    -0.05500
Br238      Br  0.51399165  0.38358862  0.97165667     0.00200
Br239      Br  0.68876714  0.38112379  0.84311226     0.00600
Br240      Br  0.53175728  0.34823823  0.80240312    -0.03800
Br241      Br  0.58114128  0.48731187  0.85507118     0.00700
Br242      Br  0.55174034  0.34484995  0.92520271    -0.03100
Br243      Br  0.65044787  0.41445372  0.89694966    -0.04000
Br244      Br  0.56531534  0.30697411  0.75547975     0.00000
C245        C  0.56119657  0.10395746  0.91290061     0.01400
C246        C  0.59086498  0.12861020  0.92782476     0.04300
C247        C  0.60582957  0.15801976  0.90633545    -0.11800
C248        C  0.59187703  0.16351690  0.86923376     0.23600
C249        C  0.56194856  0.13937875  0.85491567    -0.12400
C250        C  0.54661451  0.11020236  0.87653212     0.05000
C251        C  0.60822658  0.19460551  0.84545995     0.27400
C252        C  0.59999559  0.21951380  0.85445606    -0.13100
C253        C  0.61394821  0.24803788  0.83100792     0.05500
C254        C  0.63686042  0.25265629  0.79742333    -0.09000
C255        C  0.64658955  0.22802112  0.79066480     0.06300
C256        C  0.63175419  0.19924171  0.81345223    -0.13400
Br257      Br  0.54177972  0.14660109  0.80523979    -0.05500
Br258      Br  0.61223599  0.12204478  0.97669108     0.00200
Br259      Br  0.59924485  0.27942209  0.84490514     0.00600
Br260      Br  0.64358127  0.16555962  0.80087624    -0.03800
Br261      Br  0.50418310  0.07953928  0.85690617     0.00700
Br262      Br  0.64579376  0.19121965  0.92760666    -0.03100
Br263      Br  0.56861441  0.21391331  0.89904915    -0.04000
Br264      Br  0.68304740  0.23409163  0.75394038     0.00000
C265        C  0.54356331  0.42274999  0.57675926     0.01400
C266        C  0.52830002  0.40246636  0.61103549     0.04300
C267        C  0.54494456  0.38753952  0.63294528    -0.11800
C268        C  0.57709489  0.39230358  0.62081271     0.23600
C269        C  0.59169323  0.41117376  0.58509284    -0.12400
C270        C  0.57516459  0.42646967  0.56339535     0.05000
C271        C  0.59547817  0.37785525  0.64615920     0.27400
C272        C  0.61731869  0.39489464  0.67826038    -0.13100
C273        C  0.63400067  0.38120637  0.70288899     0.05500
C274        C  0.62796553  0.34922908  0.69752296    -0.09000
C275        C  0.60636013  0.33263057  0.66407083     0.06300
C276        C  0.59056490  0.34686089  0.63886880    -0.13400
Br277      Br  0.63475678  0.41648660  0.56654094    -0.05500
Br278      Br  0.48414502  0.39502319  0.62798496     0.00200
Br279      Br  0.66802393  0.40850465  0.73979987     0.00600
Br280      Br  0.56141692  0.32379959  0.59394447    -0.03800
Br281      Br  0.59669787  0.45413163  0.51699964     0.00700
Br282      Br  0.52401449  0.36102050  0.68056643    -0.03100
Br283      Br  0.62439880  0.43757435  0.68802308    -0.04000
Br284      Br  0.59592036  0.28960267  0.65246456     0.00000
C285        C  0.56617751  0.10624962  0.57987292     0.01400
C286        C  0.58957225  0.11210306  0.61231789     0.04300
C287        C  0.60333319  0.14125573  0.63366361    -0.11800
C288        C  0.59401493  0.16533894  0.62320447     0.23600
C289        C  0.57153182  0.15997761  0.58971929    -0.12400
C290        C  0.55765049  0.13069492  0.56838401     0.05000
C291        C  0.60747109  0.19582811  0.64791452     0.27400
C292        C  0.58835176  0.20104661  0.67957450    -0.13100
C293        C  0.60129099  0.22898372  0.70389555     0.05500
C294        C  0.63433827  0.25250280  0.69796951    -0.09000
C295        C  0.65276737  0.24748631  0.66445389     0.06300
C296        C  0.63959918  0.21949659  0.64028809    -0.13400
Br297      Br  0.55924643  0.19275496  0.57369202    -0.05500
Br298      Br  0.60290149  0.07984617  0.62765007     0.00200
Br299      Br  0.57143747  0.23573763  0.74161644     0.00600
Br300      Br  0.66580571  0.21310669  0.59627323    -0.03800
Br301      Br  0.52519566  0.12331879  0.52518484     0.00700
Br302      Br  0.63456245  0.14799525  0.67829216    -0.03100
Br303      Br  0.54377808  0.16950123  0.68924613    -0.04000
Br304      Br  0.69698997  0.27765250  0.65121595     0.00000
C305        C  0.57370479  0.73385314  0.69595197     0.01400
C306        C  0.54321713  0.71975979  0.67428723     0.04300
C307        C  0.53484753  0.69173269  0.65238059    -0.11800
C308        C  0.55619628  0.67711692  0.65304069     0.23600
C309        C  0.58716686  0.69171346  0.67279581    -0.12400
C310        C  0.59649872  0.72080542  0.69249502     0.05000
C311        C  0.54606369  0.64679923  0.63165614     0.27400
C312        C  0.52158464  0.61945240  0.64994858    -0.13100
C313        C  0.50928149  0.59117949  0.62775173     0.05500
C314        C  0.52341266  0.58959510  0.58860854    -0.09000
C315        C  0.54806685  0.61711030  0.57034854     0.06300
C316        C  0.55860697  0.64582171  0.59142372    -0.13400
Br317      Br  0.61661747  0.67174685  0.67306742    -0.05500
Br318      Br  0.51197136  0.73782194  0.67464855     0.00200
Br319      Br  0.47122382  0.55546824  0.64978846     0.00600
Br320      Br  0.58960480  0.68411419  0.56488600    -0.03800
Br321      Br  0.64157229  0.74427281  0.71007070     0.00700
Br322      Br  0.49397654  0.67306996  0.62119804    -0.03100
Br323      Br  0.50451676  0.62091072  0.70523908    -0.04000
Br324      Br  0.56870658  0.61587314  0.51747309     0.00000
C325        C  0.57720391  0.83896005  0.70490355     0.01400
C326        C  0.60404344  0.86171607  0.68213976     0.04300
C327        C  0.60038760  0.88631314  0.66141787    -0.11800
C328        C  0.56930093  0.88691785  0.66069337     0.23600
C329        C  0.54200372  0.86309800  0.68100121    -0.12400
C330        C  0.54590902  0.83923684  0.70303686     0.05000
C331        C  0.56415073  0.91129916  0.63673915     0.27400
C332        C  0.56110842  0.93576844  0.65827538    -0.13100
C333        C  0.54754553  0.95392712  0.63802807     0.05500
C334        C  0.53970614  0.94949318  0.59455384    -0.09000
C335        C  0.54718392  0.92754736  0.57204997     0.06300
C336        C  0.55782153  0.90758158  0.59345678    -0.13400
Br337      Br  0.49875019  0.86249384  0.67688453    -0.05500
Br338      Br  0.64518222  0.85814120  0.67680873     0.00200
Br339      Br  0.53711676  0.98219875  0.67226805     0.00600
Br340      Br  0.56191867  0.87379955  0.56403252    -0.03800
Br341      Br  0.50736782  0.80526782  0.72641501     0.00700
Br342      Br  0.63773240  0.91908138  0.63373637    -0.03100
Br343      Br  0.57443201  0.94325303  0.71628842    -0.04000
Br344      Br  0.54465903  0.92524906  0.51173154     0.00000
C345        C  0.55050712  0.60365283  0.92256807     0.01400
C346        C  0.54289604  0.62844504  0.93475746     0.04300
C347        C  0.55475260  0.65613146  0.91061875    -0.11800
C348        C  0.57338643  0.65874795  0.87385314     0.23600
C349        C  0.58376075  0.63550218  0.86406029    -0.12400
C350        C  0.57315336  0.60841247  0.88908027     0.05000
C351        C  0.57785903  0.68365869  0.84298519     0.27400
C352        C  0.55055138  0.68078275  0.81878267    -0.13100
C353        C  0.55230490  0.70608947  0.79432349     0.05500
C354        C  0.58248368  0.73330839  0.79035400    -0.09000
C355        C  0.61021378  0.73579081  0.81386628     0.06300
C356        C  0.60776917  0.71106931  0.84038864    -0.13400
Br357      Br  0.61044829  0.63977007  0.81459968    -0.05500
Br358      Br  0.51434468  0.62419705  0.98205276     0.00200
Br359      Br  0.51180048  0.70499042  0.77290908     0.00600
Br360      Br  0.64470951  0.71520481  0.87476532    -0.03800
Br361      Br  0.58999252  0.57792847  0.87716906     0.00700
Br362      Br  0.54343927  0.68978607  0.92573078    -0.03100
Br363      Br  0.50999992  0.64243686  0.82099710    -0.04000
Br364      Br  0.65090130  0.77396870  0.81245153     0.00000
C365        C  0.57440252  0.83279056  0.79954484     0.01400
C366        C  0.54479193  0.82123404  0.82361700     0.04300
C367        C  0.53661360  0.84205764  0.84679489    -0.11800
C368        C  0.55790473  0.87425999  0.84621461     0.23600
C369        C  0.58814493  0.88557696  0.82427233    -0.12400
C370        C  0.59696676  0.86465559  0.80235985     0.05000
C371        C  0.54791244  0.89641865  0.86743072     0.27400
C372        C  0.52759265  0.90733950  0.84616630    -0.13100
C373        C  0.51845142  0.92894932  0.86557553     0.05500
C374        C  0.52915226  0.93925466  0.90677643    -0.09000
C375        C  0.54951030  0.92820270  0.92805797     0.06300
C376        C  0.55876184  0.90663869  0.90840115    -0.13400
Br377      Br  0.61687906  0.92993358  0.82319470    -0.05500
Br378      Br  0.51491086  0.77703127  0.82535860     0.00200
Br379      Br  0.49021439  0.94329702  0.83570988     0.00600
Br380      Br  0.58564019  0.89041884  0.93762452    -0.03800
Br381      Br  0.64117273  0.87916139  0.78045039     0.00700
Br382      Br  0.49563053  0.82684566  0.87822529    -0.03100
Br383      Br  0.51136211  0.89165118  0.79089934    -0.04000
Br384      Br  0.56602246  0.94352818  0.98314421     0.00000
C385        C  0.46622709  0.39161618  0.08070310     0.01400
C386        C  0.48478939  0.38730712  0.11360017     0.04300
C387        C  0.47361995  0.35804208  0.13366483    -0.11800
C388        C  0.44442763  0.33265586  0.12008572     0.23600
C389        C  0.42704132  0.33633540  0.08546355    -0.12400
C390        C  0.43771282  0.36584646  0.06598979     0.05000
C391        C  0.43337109  0.30180919  0.14115093     0.27400
C392        C  0.45032455  0.28352656  0.13298172    -0.13100
C393        C  0.44519846  0.25781771  0.15891207     0.05500
C394        C  0.42020133  0.24810856  0.19061226    -0.09000
C395        C  0.39964363  0.26369898  0.19367811     0.06300
C396        C  0.40757870  0.29162920  0.17103009    -0.13400
Br397      Br  0.38881496  0.30078769  0.06464026    -0.05500
Br398      Br  0.52660718  0.42092608  0.12965264     0.00200
Br399      Br  0.47475794  0.23819351  0.15167271     0.00600
Br400      Br  0.38365214  0.31631561  0.18152090    -0.03800
Br401      Br  0.41228146  0.37096639  0.02037158     0.00700
Br402      Br  0.49840164  0.35266843  0.17987081    -0.03100
Br403      Br  0.48106281  0.29437915  0.08632474    -0.04000
Br404      Br  0.35873023  0.24533825  0.22474046     0.00000
C405        C  0.42242105  0.25277066  0.28744223     0.01400
C406        C  0.45209087  0.28060444  0.28452495     0.04300
C407        C  0.45643734  0.30653400  0.30938620    -0.11800
C408        C  0.43232410  0.30396895  0.33945288     0.23600
C409        C  0.40349043  0.27577800  0.34409341    -0.12400
C410        C  0.39832503  0.25029778  0.31790712     0.05000
C411        C  0.43734134  0.33106968  0.36616201     0.27400
C412        C  0.45828962  0.33818039  0.40121805    -0.13100
C413        C  0.46533755  0.36560712  0.42435661     0.05500
C414        C  0.45043707  0.38545878  0.41305686    -0.09000
C415        C  0.42720510  0.37656856  0.37993548     0.06300
C416        C  0.42159445  0.35005224  0.35576815    -0.13400
Br417      Br  0.37157173  0.27199649  0.38721263    -0.05500
Br418      Br  0.48864064  0.28221067  0.25097766     0.00200
Br419      Br  0.49693188  0.37619928  0.46945994     0.00600
Br420      Br  0.39328630  0.34023967  0.30717656    -0.03800
Br421      Br  0.35854526  0.21165150  0.32502372     0.00700
Br422      Br  0.49576804  0.34553351  0.30308061    -0.03100
Br423      Br  0.47808285  0.31063957  0.41644277    -0.04000
Br424      Br  0.40164921  0.39967209  0.36814965     0.00000
C425        C  0.43056245  0.15299466  0.29522545     0.01400
C426        C  0.40858831  0.12085710  0.29806463     0.04300
C427        C  0.41839426  0.09982977  0.31813257    -0.11800
C428        C  0.44910644  0.11115844  0.33856833     0.23600
C429        C  0.46972964  0.14355856  0.33959207    -0.12400
C430        C  0.46062440  0.16453229  0.31806634     0.05000
C431        C  0.45972355  0.08919449  0.35967582     0.27400
C432        C  0.44755126  0.07747657  0.39998578    -0.13100
C433        C  0.45893944  0.05786361  0.42082140     0.05500
C434        C  0.48293333  0.05033643  0.40167093    -0.09000
C435        C  0.49497814  0.06201222  0.36117848     0.06300
C436        C  0.48318152  0.08118687  0.34011430    -0.13400
Br437      Br  0.51078773  0.15900855  0.37034609    -0.05500
Br438      Br  0.36361017  0.10611140  0.27947222     0.00200
Br439      Br  0.44080056  0.04071382  0.47491236     0.00600
Br440      Br  0.49956026  0.09710033  0.28468275    -0.03800
Br441      Br  0.48991993  0.20889903  0.32071456     0.00700
Br442      Br  0.38996247  0.05540133  0.31729865    -0.03100
Br443      Br  0.41570198  0.08885339  0.42688111    -0.04000
Br444      Br  0.52886928  0.05309542  0.33509403     0.00000
C445        C  0.42352466  0.14706031  0.20058091     0.01400
C446        C  0.39764482  0.12461837  0.17658210     0.04300
C447        C  0.40361583  0.10302707  0.15196745    -0.11800
C448        C  0.43529410  0.10388128  0.15120665     0.23600
C449        C  0.46146448  0.12706505  0.17334996    -0.12400
C450        C  0.45583560  0.14919611  0.19697439     0.05000
C451        C  0.44161976  0.08064804  0.12688398     0.27400
C452        C  0.43755236  0.05258758  0.14618153    -0.13100
C453        C  0.44919354  0.03287685  0.12617267     0.05500
C454        C  0.46586565  0.04191112  0.08669964    -0.09000
C455        C  0.46484783  0.06774473  0.06495668     0.06300
C456        C  0.45370261  0.08753856  0.08565846    -0.13400
Br457      Br  0.50536071  0.12900797  0.16999417    -0.05500
Br458      Br  0.35441695  0.12423473  0.17533744     0.00200
Br459      Br  0.44111663  0.99390501  0.15432476     0.00600
Br460      Br  0.45625070  0.12506560  0.05852876    -0.03800
Br461      Br  0.49340561  0.18458511  0.21910642     0.00700
Br462      Br  0.36889864  0.07274041  0.11821785    -0.03100
Br463      Br  0.41729103  0.04225637  0.20125904    -0.04000
Br464      Br  0.47639412  0.07577116  0.00616587     0.00000
C465        C  0.75662070  0.16253484  0.29906914     0.01400
C466        C  0.75810682  0.13892147  0.32500120     0.04300
C467        C  0.73050751  0.11979338  0.34941900    -0.11800
C468        C  0.70080050  0.12288745  0.34595858     0.23600
C469        C  0.69961253  0.14696228  0.32109766    -0.12400
C470        C  0.72817342  0.16800727  0.30011863     0.05000
C471        C  0.67088880  0.10119979  0.36890329     0.27400
C472        C  0.65301675  0.07035787  0.35448355    -0.13100
C473        C  0.62410972  0.04988953  0.37556117     0.05500
C474        C  0.61161374  0.06090542  0.40962541    -0.09000
C475        C  0.62968231  0.09216206  0.42367233     0.06300
C476        C  0.65980762  0.11175733  0.40423851    -0.13400
Br477      Br  0.65881691  0.15107404  0.31561507    -0.05500
Br478      Br  0.79782658  0.13270849  0.32775026     0.00200
Br479      Br  0.60310608  0.00648619  0.35810807     0.00600
Br480      Br  0.68598272  0.15345056  0.42561068    -0.03800
Br481      Br  0.72958906  0.20650152  0.27859011     0.00700
Br482      Br  0.73333526  0.08964653  0.38814544    -0.03100
Br483      Br  0.66792867  0.05642062  0.30506408    -0.04000
Br484      Br  0.61279813  0.10983258  0.46712000     0.00000
C485        C  0.75344439  0.16083758  0.20457822     0.01400
C486        C  0.73762054  0.17586229  0.18113675     0.04300
C487        C  0.70819000  0.15793403  0.15951703    -0.11800
C488        C  0.69495242  0.12503340  0.15985668     0.23600
C489        C  0.71131897  0.10999698  0.18157510    -0.12400
C490        C  0.74078543  0.12785664  0.20328265     0.05000
C491        C  0.66426671  0.10627116  0.13628785     0.27400
C492        C  0.63325645  0.09879827  0.15482867    -0.13100
C493        C  0.60407875  0.08104653  0.13261335     0.05500
C494        C  0.60573227  0.06881522  0.09251697    -0.09000
C495        C  0.63711100  0.07658367  0.07394173     0.06300
C496        C  0.66617426  0.09601804  0.09537671    -0.13400
Br497      Br  0.69336090  0.06483469  0.18097670    -0.05500
Br498      Br  0.75664196  0.22107524  0.17658466     0.00200
Br499      Br  0.56216522  0.07501465  0.15709627     0.00600
Br500      Br  0.70891459  0.10849193  0.06907178    -0.03800
Br501      Br  0.76547693  0.10719639  0.22698079     0.00700
Br502      Br  0.68588547  0.17832207  0.12893024    -0.03100
Br503      Br  0.63097165  0.11252391  0.21122612    -0.04000
Br504      Br  0.64118685  0.05896560  0.02076255     0.00000
C505        C  0.95151303  0.38907295  0.40450471     0.01400
C506        C  0.91910713  0.37778721  0.38864480     0.04300
C507        C  0.90515039  0.34912579  0.36692850    -0.11800
C508        C  0.92331779  0.33146122  0.36153029     0.23600
C509        C  0.95542027  0.34237671  0.37818530    -0.12400
C510        C  0.96953851  0.37117217  0.39951291     0.05000
C511        C  0.90827946  0.30109085  0.33908282     0.27400
C512        C  0.88964215  0.27317534  0.36126692    -0.13100
C513        C  0.87354666  0.24484826  0.33916032     0.05500
C514        C  0.87350548  0.24515016  0.29454902    -0.09000
C515        C  0.90071765  0.27021552  0.27578403     0.06300
C516        C  0.91537161  0.29923940  0.29641360    -0.13400
Br517      Br  0.97989712  0.31769956  0.37182347    -0.05500
Br518      Br  0.89424558  0.40207244  0.39529680     0.00200
Br519      Br  0.86065808  0.20602259  0.36972336     0.00600
Br520      Br  0.94660353  0.33561258  0.26683994    -0.03800
Br521      Br  0.01317503  0.38554501  0.42328625     0.00700
Br522      Br  0.86129768  0.33413237  0.34382737    -0.03100
Br523      Br  0.88704134  0.27370176  0.42166294    -0.04000
Br524      Br  0.92954329  0.26044360  0.24006355     0.00000
C525        C  0.73147784  0.34715349  0.69516749     0.01400
C526        C  0.73402915  0.36780250  0.66112349     0.04300
C527        C  0.76305566  0.38140074  0.63588951    -0.11800
C528        C  0.79030383  0.37487097  0.64353260     0.23600
C529        C  0.78770208  0.35354924  0.67578871    -0.12400
C530        C  0.75849726  0.33924537  0.70054448     0.05000
C531        C  0.82217948  0.39146716  0.61895765     0.27400
C532        C  0.83031347  0.37677924  0.58501499    -0.13100
C533        C  0.86112704  0.39213417  0.56362992     0.05500
C534        C  0.88399994  0.42262739  0.57545415    -0.09000
C535        C  0.87522530  0.43764230  0.60846742     0.06300
C536        C  0.84478666  0.42213156  0.63015382    -0.13400
Br537      Br  0.82478954  0.34408101  0.68597962    -0.05500
Br538      Br  0.69918510  0.37966038  0.64854269     0.00200
Br539      Br  0.87290667  0.37058760  0.52003464     0.00600
Br540      Br  0.83417147  0.44273993  0.67613033    -0.03800
Br541      Br  0.75494535  0.30582502  0.73757925     0.00700
Br542      Br  0.76617088  0.40988035  0.59069504    -0.03100
Br543      Br  0.79924726  0.33534349  0.56827441    -0.04000
Br544      Br  0.90471672  0.48013857  0.62371438     0.00000
C545        C  0.86296783  0.24647886  0.19545012     0.01400
C546        C  0.86375718  0.27658834  0.19698240     0.04300
C547        C  0.88365042  0.29987416  0.16856848    -0.11800
C548        C  0.90036916  0.29248861  0.13598431     0.23600
C549        C  0.89771596  0.26188173  0.13233834    -0.12400
C550        C  0.87935281  0.23894674  0.16227808     0.05000
C551        C  0.92045994  0.31742238  0.10588878     0.27400
C552        C  0.90496078  0.32504068  0.07235118    -0.13100
C553        C  0.92135893  0.35399564  0.05133840     0.05500
C554        C  0.95344799  0.37536312  0.06423475    -0.09000
C555        C  0.97049458  0.36528994  0.09362168     0.06300
C556        C  0.95386282  0.33652775  0.11465744    -0.13400
Br557      Br  0.91910253  0.25154985  0.08624026    -0.05500
Br558      Br  0.83599302  0.28556241  0.23610121     0.00200
Br559      Br  0.89841005  0.36440812  0.00731283     0.00600
Br560      Br  0.97609357  0.32403293  0.15740998    -0.03800
Br561      Br  0.87777637  0.19758714  0.15893841     0.00700
Br562      Br  0.88817192  0.34215859  0.17431737    -0.03100
Br563      Br  0.86038372  0.29635658  0.05740783    -0.04000
Br564      Br  0.01674236  0.39073635  0.10564133     0.00000
C565        C  0.88726190  0.42611188  0.91317156     0.01400
C566        C  0.85681609  0.42209163  0.93149188     0.04300
C567        C  0.82651712  0.40733063  0.90895645    -0.11800
C568        C  0.82585466  0.39625811  0.86750916     0.23600
C569        C  0.85615562  0.39990986  0.84942521    -0.12400
C570        C  0.88634242  0.41445368  0.87194268     0.05000
C571        C  0.79358515  0.38080497  0.84293700     0.27400
C572        C  0.77159251  0.34900958  0.84945557    -0.13100
C573        C  0.74146270  0.33441739  0.82664866     0.05500
C574        C  0.73316410  0.35069783  0.79441059    -0.09000
C575        C  0.75548686  0.38297516  0.78848739     0.06300
C576        C  0.78493252  0.39770101  0.81263177    -0.13400
Br577      Br  0.85631295  0.38543350  0.79294014    -0.05500
Br578      Br  0.85677972  0.43873728  0.98653095     0.00200
Br579      Br  0.71289402  0.29131865  0.83944712     0.00600
Br580      Br  0.81360337  0.44174239  0.80500512    -0.03800
Br581      Br  0.92672001  0.41791562  0.84607042     0.00700
Br582      Br  0.78576873  0.40343989  0.93414680    -0.03100
Br583      Br  0.78373198  0.32505403  0.88919622    -0.04000
Br584      Br  0.74513809  0.40891287  0.75038131     0.00000
C585        C  0.82388863  0.54286379  0.30381680     0.01400
C586        C  0.85626354  0.56533720  0.29365334     0.04300
C587        C  0.88373644  0.56453105  0.31383843    -0.11800
C588        C  0.87885631  0.54114701  0.34387825     0.23600
C589        C  0.84669650  0.52072196  0.35695067    -0.12400
C590        C  0.81931474  0.52248296  0.33836300     0.05000
C591        C  0.90684256  0.53584049  0.35987017     0.27400
C592        C  0.91670815  0.51569311  0.33761011    -0.13100
C593        C  0.93619808  0.50309251  0.35708468     0.05500
C594        C  0.94713987  0.51184092  0.39849895    -0.09000
C595        C  0.94033677  0.53483131  0.41902716     0.06300
C596        C  0.91954307  0.54628553  0.40006145    -0.13400
Br597      Br  0.84018047  0.48881544  0.39873820    -0.05500
Br598      Br  0.86302678  0.59856578  0.25450072     0.00200
Br599      Br  0.94563020  0.47213830  0.32779851     0.00600
Br600      Br  0.90705478  0.57508001  0.42957016    -0.03800
Br601      Br  0.77618303  0.49651211  0.36127896     0.00700
Br602      Br  0.92807920  0.59478608  0.30011376    -0.03100
Br603      Br  0.90219558  0.50433605  0.28098275    -0.04000
Br604      Br  0.96037183  0.55174403  0.47209657     0.00000
C605        C  0.93061747  0.48250316  0.10456596     0.01400
C606        C  0.89741119  0.45942991  0.10527709     0.04300
C607        C  0.87283420  0.46622358  0.12355395    -0.11800
C608        C  0.88199731  0.49363375  0.14748725     0.23600
C609        C  0.91547601  0.51550259  0.14997902    -0.12400
C610        C  0.93929555  0.51104154  0.12601623     0.05000
C611        C  0.85667224  0.50083161  0.16804243     0.27400
C612        C  0.85137568  0.52624871  0.15314423    -0.13100
C613        C  0.83171671  0.53686720  0.17631327     0.05500
C614        C  0.81551311  0.52073989  0.21322921    -0.09000
C615        C  0.81737489  0.49273722  0.22469196     0.06300
C616        C  0.83892303  0.48341846  0.20314367    -0.13400
Br617      Br  0.92864693  0.55226367  0.18504607    -0.05500
Br618      Br  0.88539283  0.41756011  0.08475362     0.00200
Br619      Br  0.82638064  0.57289253  0.15590426     0.00600
Br620      Br  0.84325216  0.44631802  0.22117192    -0.03800
Br621      Br  0.98252870  0.54558269  0.11951031     0.00700
Br622      Br  0.82674960  0.43899102  0.11344960    -0.03100
Br623      Br  0.87040018  0.54585124  0.10007285    -0.04000
Br624      Br  0.78735725  0.46473756  0.26574327     0.00000
C625        C  0.71044801  0.53538278  0.29582814     0.01400
C626        C  0.70136783  0.56018836  0.29993304     0.04300
C627        C  0.67013483  0.55435069  0.31632364    -0.11800
C628        C  0.64904303  0.52420106  0.33138201     0.23600
C629        C  0.65889456  0.49981095  0.32955202    -0.12400
C630        C  0.68941237  0.50530570  0.31146960     0.05000
C631        C  0.61794329  0.51873159  0.35301212     0.27400
C632        C  0.61913455  0.52939165  0.39441901    -0.13100
C633        C  0.58969877  0.52269303  0.41636688     0.05500
C634        C  0.55899509  0.50412101  0.39762698    -0.09000
C635        C  0.55783513  0.49404944  0.35571810     0.06300
C636        C  0.58733464  0.50140468  0.33340240    -0.13400
Br637      Br  0.63082373  0.45898925  0.35276203    -0.05500
Br638      Br  0.73252268  0.60242710  0.28669153     0.00200
Br639      Br  0.59208419  0.54064371  0.47097586     0.00600
Br640      Br  0.58592722  0.48633539  0.27682061    -0.03800
Br641      Br  0.70256237  0.47159481  0.30989542     0.00700
Br642      Br  0.65626361  0.58761311  0.31873400    -0.03100
Br643      Br  0.66125821  0.55195465  0.42180982    -0.04000
Br644      Br  0.51598484  0.46901126  0.32914693     0.00000
C645        C  0.57359110  0.51944544  0.09098286     0.01400
C646        C  0.60141877  0.52009945  0.06855907     0.04300
C647        C  0.63133732  0.52760800  0.08941211    -0.11800
C648        C  0.63432944  0.53601741  0.13180334     0.23600
C649        C  0.60896082  0.54019775  0.15249050    -0.12400
C650        C  0.57834965  0.53154229  0.13265626     0.05000
C651        C  0.66183060  0.53559321  0.15618359     0.27400
C652        C  0.65874856  0.50678800  0.17243938    -0.13100
C653        C  0.68510853  0.50547433  0.19420457     0.05500
C654        C  0.71335133  0.53335618  0.20288204    -0.09000
C655        C  0.71737376  0.56178416  0.18405489     0.06300
C656        C  0.69141097  0.56295688  0.16093826    -0.13400
Br657      Br  0.61615552  0.55623293  0.20912608    -0.05500
Br658      Br  0.60025573  0.51124017  0.00929304     0.00200
Br659      Br  0.68405985  0.46529462  0.20673012     0.00600
Br660      Br  0.69628647  0.60162246  0.13521445    -0.03800
Br661      Br  0.54357880  0.53475315  0.16544845     0.00700
Br662      Br  0.66797563  0.52447977  0.06099415    -0.03100
Br663      Br  0.61841148  0.46903320  0.16447658    -0.04000
Br664      Br  0.75954339  0.59817357  0.18613684     0.00000
C665        C  0.40563979  0.92833164  0.59350065     0.01400
C666        C  0.37455149  0.92427051  0.57810121     0.04300
C667        C  0.34541993  0.90295397  0.59787933    -0.11800
C668        C  0.34733344  0.88667110  0.63391020     0.23600
C669        C  0.37824552  0.89096297  0.64963098    -0.12400
C670        C  0.40739224  0.91137021  0.62917188     0.05000
C671        C  0.31693731  0.86320560  0.65377144     0.27400
C672        C  0.29864698  0.87242249  0.68191620    -0.13100
C673        C  0.27095418  0.84954798  0.70266802     0.05500
C674        C  0.26330535  0.81744994  0.69823644    -0.09000
C675        C  0.28059420  0.80853391  0.66758279     0.06300
C676        C  0.30697873  0.83138476  0.64511049    -0.13400
Br677      Br  0.38047263  0.86797992  0.69858695    -0.05500
Br678      Br  0.37148468  0.94877783  0.53120088     0.00200
Br679      Br  0.24166524  0.86229540  0.73277850     0.00600
Br680      Br  0.33035708  0.81933404  0.60283711    -0.03800
Br681      Br  0.44930776  0.91419092  0.64890282     0.00700
Br682      Br  0.30280129  0.89525882  0.57510602    -0.03100
Br683      Br  0.31200595  0.91638294  0.69230471    -0.04000
Br684      Br  0.26965268  0.76541889  0.65581733     0.00000
C685        C  0.04528076  0.58433146  0.60362457     0.01400
C686        C  0.05736983  0.61269901  0.58062707     0.04300
C687        C  0.07705580  0.64114633  0.60052405    -0.11800
C688        C  0.08400393  0.64135046  0.64351804     0.23600
C689        C  0.06961006  0.61362275  0.66735260    -0.12400
C690        C  0.04985585  0.58513241  0.64771572     0.05000
C691        C  0.11022216  0.66936031  0.66259433     0.27400
C692        C  0.14226431  0.67123378  0.66468585    -0.13100
C693        C  0.16690029  0.69573007  0.68673881     0.05500
C694        C  0.15983266  0.71901224  0.70602451    -0.09000
C695        C  0.12845522  0.71856507  0.70037957     0.06300
C696        C  0.10325951  0.69309411  0.68004968    -0.13400
Br697      Br  0.07952627  0.61458446  0.72649804    -0.05500
Br698      Br  0.04579531  0.61301773  0.52239463     0.00200
Br699      Br  0.21030908  0.69718334  0.68858522     0.00600
Br700      Br  0.05922565  0.69037543  0.67625762    -0.03800
Br701      Br  0.03083942  0.54763253  0.68203485     0.00700
Br702      Br  0.09625963  0.67962735  0.56858168    -0.03100
Br703      Br  0.15213458  0.63978595  0.63728283    -0.04000
Br704      Br  0.12074048  0.75391727  0.71665996     0.00000
C705        C  0.26946481  0.81527312  0.79325625     0.01400
C706        C  0.30111069  0.81593140  0.78943063     0.04300
C707        C  0.32776372  0.83768255  0.81253839    -0.11800
C708        C  0.32235258  0.85718594  0.84190827     0.23600
C709        C  0.29029845  0.85462102  0.84860364    -0.12400
C710        C  0.26402873  0.83421629  0.82386592     0.05000
C711        C  0.35037792  0.88072056  0.86549493     0.27400
C712        C  0.36513612  0.87126050  0.89811077    -0.13100
C713        C  0.39327398  0.89351262  0.91823231     0.05500
C714        C  0.40468281  0.92570429  0.90876954    -0.09000
C715        C  0.38885479  0.93523114  0.87730777     0.06300
C716        C  0.36242777  0.91267785  0.85487151    -0.13400
Br717      Br  0.28238492  0.87853860  0.89275248    -0.05500
Br718      Br  0.30734576  0.78466366  0.75688714     0.00200
Br719      Br  0.41816072  0.87912344  0.95459340     0.00600
Br720      Br  0.34293372  0.92547704  0.80904604    -0.03800
Br721      Br  0.22061404  0.83214210  0.83327642     0.00700
Br722      Br  0.37161927  0.84028846  0.80484796    -0.03100
Br723      Br  0.34679509  0.82777373  0.91513586    -0.04000
Br724      Br  0.40276368  0.97916408  0.86503269     0.00000
C725        C  0.05307182  0.59982240  0.93343778     0.01400
C726        C  0.04089035  0.60958221  0.89812864     0.04300
C727        C  0.06246837  0.63436324  0.87288720    -0.11800
C728        C  0.09566585  0.65126735  0.88479232     0.23600
C729        C  0.10666421  0.64465176  0.92331753    -0.12400
C730        C  0.08561897  0.61858565  0.94738532     0.05000
C731        C  0.11935150  0.67495100  0.85591112     0.27400
C732        C  0.14270277  0.66816729  0.83383131    -0.13100
C733        C  0.16668325  0.69130928  0.80865025     0.05500
C734        C  0.16471224  0.71975428  0.80077189    -0.09000
C735        C  0.14166483  0.72671944  0.82362497     0.10300
C736        C  0.11938169  0.70452187  0.85158969    -0.13400
Br737      Br  0.15125407  0.67048087  0.94175103    -0.05500
Br738      Br  0.99443566  0.58905212  0.88416313     0.00200
Br739      Br  0.20518776  0.68601834  0.79209355     0.00600
Br740      Br  0.08955339  0.71483470  0.88515974    -0.03800
Br741      Br  0.10275666  0.60805796  0.99736918     0.00700
Br742      Br  0.04711274  0.64365925  0.82045263    -0.03100
Br743      Br  0.14204896  0.62719977  0.83837428    -0.04000
Br744      Br  0.14249110  0.76765605  0.82026644     0.00000
C745        C  0.26710403  0.41750548  0.71519193     0.01400
C746        C  0.28992426  0.44875175  0.70636905     0.04300
C747        C  0.31910430  0.45497203  0.68420708    -0.11800
C748        C  0.32449994  0.43011561  0.66762742     0.23600
C749        C  0.30085811  0.39892834  0.67360556    -0.12400
C750        C  0.27199349  0.39256095  0.69717692     0.05000
C751        C  0.35475892  0.43765028  0.64257483     0.27400
C752        C  0.35527764  0.44508643  0.59981567    -0.13100
C753        C  0.38544127  0.45829595  0.57763694     0.05500
C754        C  0.41558975  0.46524386  0.59874857    -0.09000
C755        C  0.41456715  0.45715173  0.64196107     0.06300
C756        C  0.38409080  0.44234724  0.66307911    -0.13400
Br757      Br  0.30820164  0.36524981  0.64919126    -0.05500
Br758      Br  0.27963512  0.48330028  0.71884172     0.00200
Br759      Br  0.38415018  0.46592919  0.51840178     0.00600
Br760      Br  0.38210315  0.42910757  0.72081949    -0.03800
Br761      Br  0.23854575  0.34991016  0.70245732     0.00700
Br762      Br  0.35174621  0.49780825  0.67584533    -0.03100
Br763      Br  0.31434193  0.43789652  0.57223454    -0.04000
Br764      Br  0.45437250  0.46878583  0.67475987     0.00000
C765        C  0.42439963  0.49246214  0.91066022     0.01400
C766        C  0.39445371  0.47882320  0.93364172     0.04300
C767        C  0.36421705  0.46733955  0.91235942    -0.11800
C768        C  0.36387345  0.47110519  0.86863611     0.23600
C769        C  0.39351503  0.48723054  0.84617938    -0.12400
C770        C  0.42383163  0.49757473  0.86704229     0.05000
C771        C  0.33209563  0.45829493  0.84650967     0.27400
C772        C  0.31733644  0.42658254  0.83470007    -0.13100
C773        C  0.28619678  0.41390192  0.81557452     0.05500
C774        C  0.27029280  0.43319367  0.80695138    -0.09000
C775        C  0.28415266  0.46448516  0.82199711     0.06300
C776        C  0.31552155  0.47718497  0.84048320    -0.13400
Br777      Br  0.39237556  0.49521955  0.78697470    -0.05500
Br778      Br  0.39393666  0.47526831  0.99384222     0.00200
Br779      Br  0.26354638  0.36935465  0.80667411     0.00600
Br780      Br  0.33606280  0.52053498  0.85791177    -0.03800
Br781      Br  0.46450299  0.51993629  0.83590502     0.00700
Br782      Br  0.32303869  0.44564792  0.94271335    -0.03100
Br783      Br  0.33963216  0.40048239  0.84575696    -0.04000
Br784      Br  0.26026966  0.49009813  0.82014379     0.00000
C785        C  0.05194257  0.46502187  0.60534090     0.01400
C786        C  0.04256428  0.43265154  0.60173914     0.04300
C787        C  0.06106028  0.41921059  0.62206906    -0.11800
C788        C  0.08875561  0.43820697  0.64624795     0.23600
C789        C  0.09823564  0.47079739  0.64912231    -0.12400
C790        C  0.07974499  0.48408925  0.62883148     0.05000
C791        C  0.10999703  0.42484503  0.66499223     0.27400
C792        C  0.09988015  0.40540178  0.70077161    -0.13100
C793        C  0.12158423  0.39471573  0.71905721     0.05500
C794        C  0.15537088  0.40859191  0.70748143    -0.09000
C795        C  0.16485518  0.42690817  0.66989186     0.06300
C796        C  0.14124854  0.43256863  0.64723284    -0.13400
Br797      Br  0.13773468  0.49805526  0.67827967    -0.05500
Br798      Br  0.00539600  0.40722047  0.56717034     0.00200
Br799      Br  0.10434628  0.35947902  0.75699593     0.00600
Br800      Br  0.15188694  0.45228291  0.59243548    -0.03800
Br801      Br  0.09287465  0.52865352  0.63233487     0.00700
Br802      Br  0.04989754  0.37534414  0.61442326    -0.03100
Br803      Br  0.05740011  0.39500150  0.72642590    -0.04000
Br804      Br  0.21008027  0.44817974  0.65014491     0.00000
C805        C  0.15827513  0.42332721  0.80197260     0.01400
C806        C  0.15420336  0.45001509  0.78969184     0.04300
C807        C  0.13075559  0.45732062  0.81011092    -0.11800
C808        C  0.11614702  0.44197417  0.84786486     0.23600
C809        C  0.12280475  0.41734556  0.86295830    -0.12400
C810        C  0.14237125  0.40690807  0.83890269     0.05000
C811        C  0.09562649  0.45340900  0.87254240     0.27400
C812        C  0.11038643  0.48369583  0.89000558    -0.13100
C813        C  0.09043571  0.49726072  0.90591377     0.05500
C814        C  0.05593273  0.47886125  0.91029334    -0.09000
C815        C  0.04178461  0.44717979  0.89734300     0.06300
C816        C  0.06120757  0.43526966  0.87585212    -0.13400
Br817      Br  0.10673118  0.39915825  0.91751070    -0.05500
Br818      Br  0.18471594  0.47977345  0.75069408     0.00200
Br819      Br  0.11055312  0.54180097  0.91710136     0.00600
Br820      Br  0.04035013  0.39474211  0.84927749    -0.03800
Br821      Br  0.14782507  0.37050247  0.85726216     0.00700
Br822      Br  0.11899793  0.48878001  0.78693644    -0.03100
Br823      Br  0.15803129  0.50685567  0.89124700    -0.04000
Br824      Br  0.99653158  0.41909703  0.91126452     0.00000
C825        C  0.25989097  0.64168394  0.20834670     0.01400
C826        C  0.25174049  0.65691664  0.17455392     0.04300
C827        C  0.22226738  0.64120837  0.15068905    -0.11800
C828        C  0.19996409  0.60982048  0.15932606     0.23600
C829        C  0.20791558  0.59425755  0.19202723    -0.12400
C830        C  0.23735045  0.60963046  0.21591677     0.05000
C831        C  0.16805357  0.59298518  0.13451797     0.27400
C832        C  0.13768824  0.59097961  0.15024064    -0.13100
C833        C  0.10737269  0.57290124  0.12935762     0.05500
C834        C  0.10653337  0.55646030  0.09185198    -0.09000
C835        C  0.13718832  0.55949673  0.07527283     0.06300
C836        C  0.16752161  0.57749369  0.09637223    -0.13400
Br837      Br  0.17824053  0.55086190  0.20298245    -0.05500
Br838      Br  0.27948351  0.70015904  0.16115623     0.00200
Br839      Br  0.06692994  0.57140524  0.15212457     0.00600
Br840      Br  0.20861004  0.58027731  0.07370256    -0.03800
Br841      Br  0.24727499  0.58433197  0.25544346     0.00700
Br842      Br  0.21187206  0.66276692  0.10577983    -0.03100
Br843      Br  0.13779513  0.61306895  0.20105089    -0.04000
Br844      Br  0.13762102  0.53717257  0.02500699     0.00000
C845        C  0.26402307  0.64638217  0.30790196     0.01400
C846        C  0.26253451  0.62627768  0.34222078     0.04300
C847        C  0.23334210  0.61105403  0.36689961    -0.11800
C848        C  0.20466896  0.61507377  0.35836311     0.23600
C849        C  0.20632350  0.63627185  0.32624038    -0.12400
C850        C  0.23586619  0.65256263  0.30240439     0.05000
C851        C  0.17267981  0.59582271  0.38209021     0.27400
C852        C  0.15233279  0.56478598  0.36961594    -0.13100
C853        C  0.12328423  0.54581949  0.39247082     0.05500
C854        C  0.11316738  0.55762372  0.42796320    -0.09000
C855        C  0.13400541  0.58851089  0.44120244     0.06300
C856        C  0.16345428  0.60740253  0.41842584    -0.13400
Br857      Br  0.16753551  0.64261071  0.31462799    -0.05500
Br858      Br  0.29890419  0.61688694  0.35570836     0.00200
Br859      Br  0.09818931  0.50261836  0.37601784     0.00600
Br860      Br  0.19126233  0.64945543  0.43663763    -0.03800
Br861      Br  0.23833106  0.68608896  0.26612595     0.00700
Br862      Br  0.23186268  0.58343823  0.41246636    -0.03100
Br863      Br  0.16430786  0.54820762  0.32051596    -0.04000
Br864      Br  0.12195940  0.60544026  0.48979226     0.00000
C865        C  0.44444436  0.55860240  0.09132901     0.01400
C866        C  0.43063938  0.57524521  0.06716216     0.04300
C867        C  0.41626919  0.59346347  0.08690256    -0.11800
C868        C  0.41237054  0.59317541  0.13108176     0.23600
C869        C  0.42414073  0.57508065  0.15502574    -0.12400
C870        C  0.44147806  0.55951475  0.13591278     0.05000
C871        C  0.39635264  0.61182596  0.15291170     0.27400
C872        C  0.41529827  0.63788595  0.17825254    -0.13100
C873        C  0.40000108  0.65293476  0.20307753     0.05500
C874        C  0.36529487  0.64379134  0.20119561    -0.09000
C875        C  0.34715914  0.61987797  0.17169467     0.06300
C876        C  0.36203898  0.60287888  0.15019787    -0.13400
Br877      Br  0.41523571  0.57063269  0.21463927    -0.05500
Br878      Br  0.42837497  0.57120515  0.00692125     0.00200
Br879      Br  0.42807018  0.68801294  0.23660558     0.00600
Br880      Br  0.33478709  0.56566566  0.11902688    -0.03800
Br881      Br  0.46260763  0.54125705  0.17268888     0.00700
Br882      Br  0.40212205  0.61923284  0.05321281    -0.03100
Br883      Br  0.46284724  0.65333709  0.17819948    -0.04000
Br884      Br  0.30143042  0.60867158  0.16038878     0.00000
C885        C  0.36683399  0.64348506  0.30017465     0.01400
C886        C  0.39051045  0.66007298  0.33165014     0.04300
C887        C  0.40569663  0.64497950  0.35654661    -0.11800
C888        C  0.39747045  0.61288126  0.35143590     0.23600
C889        C  0.37361254  0.59601440  0.32120681    -0.12400
C890        C  0.35829842  0.61083385  0.29625837     0.05000
C891        C  0.41396167  0.59659186  0.37706501     0.27400
C892        C  0.44120705  0.59285561  0.36044272    -0.13100
C893        C  0.45393200  0.57394055  0.38124827     0.05500
C894        C  0.44021859  0.55885337  0.42004672    -0.09000
C895        C  0.41460430  0.56477000  0.43831854     0.06300
C896        C  0.40133508  0.58307968  0.41671125    -0.13400
Br897      Br  0.36120178  0.55170329  0.31513543    -0.05500
Br898      Br  0.40377519  0.70395968  0.34105290     0.00200
Br899      Br  0.49102330  0.56953466  0.35628114     0.00600
Br900      Br  0.36501734  0.58907843  0.44076455    -0.03800
Br901      Br  0.32259916  0.58422350  0.26115062     0.00700
Br902      Br  0.43832583  0.66828119  0.39797481    -0.03100
Br903      Br  0.46113097  0.61397577  0.30869726    -0.04000
Br904      Br  0.39631180  0.54670402  0.49202294     0.00000
C905        C  0.35683263  0.73987679  0.20046687     0.01400
C906        C  0.37768248  0.74310133  0.16490547     0.04300
C907        C  0.39207943  0.77145594  0.14112214    -0.11800
C908        C  0.38762963  0.79811333  0.15275460     0.23600
C909        C  0.36563152  0.79473559  0.18635813    -0.12400
C910        C  0.34926073  0.76572023  0.20844878     0.05000
C911        C  0.40675950  0.82956141  0.13030032     0.27400
C912        C  0.44109383  0.84720545  0.13710766    -0.13100
C913        C  0.45952885  0.87586453  0.11531627     0.05500
C914        C  0.44386418  0.88886268  0.08784436    -0.09000
C915        C  0.40920007  0.87180803  0.08236829     0.06300
C916        C  0.39122779  0.84191148  0.10177483    -0.13400
Br917      Br  0.35824831  0.83039924  0.20256833    -0.05500
Br918      Br  0.38929153  0.71016806  0.14841913     0.00200
Br919      Br  0.50688009  0.89687772  0.12266404     0.00600
Br920      Br  0.34522663  0.81745097  0.08850954    -0.03800
Br921      Br  0.31347577  0.76092151  0.24578123     0.00700
Br922      Br  0.41834840  0.77412510  0.09172023    -0.03100
Br923      Br  0.46299962  0.83230022  0.17737959    -0.04000
Br924      Br  0.38539635  0.89085184  0.05232970     0.00000
C925        C  0.43995534  0.88827135  0.41845448     0.01400
C926        C  0.41960760  0.88569980  0.38321168     0.04300
C927        C  0.40311826  0.85686671  0.36136313    -0.11800
C928        C  0.40607961  0.82961972  0.37421863     0.23600
C929        C  0.42443607  0.83150214  0.41097656    -0.12400
C930        C  0.44104594  0.86036017  0.43295794     0.05000
C931        C  0.39067099  0.79937913  0.34870608     0.27400
C932        C  0.35889425  0.77568217  0.35823490    -0.13100
C933        C  0.34482335  0.74727209  0.33475504     0.05500
C934        C  0.36202786  0.74169973  0.30018759    -0.09000
C935        C  0.39463312  0.76549533  0.29202126     0.06300
C936        C  0.40822497  0.79399412  0.31524187    -0.13400
Br937      Br  0.42728448  0.79423558  0.43063991    -0.05500
Br938      Br  0.41269542  0.92147524  0.36571812     0.00200
Br939      Br  0.30100582  0.71722317  0.35026861     0.00600
Br940      Br  0.45162794  0.82625480  0.30150650    -0.03800
Br941      Br  0.46624409  0.86142021  0.48210414     0.00700
Br942      Br  0.37634083  0.85459771  0.31329043    -0.03100
Br943      Br  0.33429174  0.78284727  0.40352422    -0.04000
Br944      Br  0.42330788  0.75859107  0.25258354     0.00000
loop_ 
_geom_bond_atom_site_label_1 
_geom_bond_atom_site_label_2 
_geom_bond_distance 
_geom_bond_site_symmetry_2 
_ccdc_geom_bond_type 
C1            H2   1.106       .  S
C1            C7   1.575       .  S
C1            C6   1.576       .  S
C1            C5   1.574       .  S
C3            H4   1.106       .  S
C3            C9   1.577       .  S
C3            C8   1.574       .  S
C3           C10   1.582       .  S
C5            C8   1.393       .  D
C5          C885   1.547       .  S
C6            C9   1.397       .  D
C6          C845   1.549       .  S
C7           C10   1.399       .  D
C7          C934   1.557       .  S
C8          C874   1.548       .  S
C9          C825   1.555       .  S
C10         C905   1.556       .  S
C11          C12   1.429       .  A
C11          C16   1.404       .  A
C11         C794   1.502       .  S
C12          C13   1.397       .  A
C12         C805   1.484       .  S
C13          C14   1.391       .  A
C13          H18   1.085       .  S
C14          C15   1.416       .  A
C14         C774   1.484       .  S
C15          C16   1.401       .  A
C15         C745   1.485       .  S
C16          H17   1.083       .  S
C19          C20   1.416       .  A
C19          C24   1.403       .  A
C19         C694   1.482       .  S
C20          C21   1.395       .  A
C20         C734   1.484       .  S
C21          C22   1.400       .  A
C21          H26   1.085       .  S
C22          C23   1.423       .  A
C22         C705   1.485       .  S
C23          C24   1.405       .  A
C23         C674   1.494       .  S
C24          H25   1.084       .  S
C27          C28   1.407       .  A
C27          C32   1.384       .  A
C27         C654   1.472       .  S
C28          C29   1.401       .  A
C28         C625   1.475       .  S
C29          C30   1.405       .  A
C29          H34   1.084       .  S
C30          C31   1.425       .  A
C30         C585   1.493       .  S
C31          C32   1.396       .  A
C31         C614   1.477       .  S
C32          H33   1.085       .  S
O35         Ni41   1.956       .  S
O35          C56   1.276       .  A
O36         Ni59   1.967       .  S
O36          C45   1.283       .  A
O37         Ni41   1.916       .  S
O37         Ni59   1.934   1_454  S
O37         Ni53   1.908       .  S
O37          H60   0.966       .  S
C38         C725   1.481       .  S
C38          O55   1.267       .  A
C38          O47   1.269       .  A
O39         Ni58   1.933       .  S
O39          C45   1.271       .  A
O40         Ni58   1.900   1_455  S
O40          C42   1.274       .  A
Ni41         O44   1.929   1_455  S
Ni41         O46   1.896   1_455  S
C42         C814   1.477       .  S
C42          O52   1.278       .  A
O43         Ni59   1.914   1_554  S
O43          C49   1.272       .  A
O44          C49   1.274       .  A
C45         C565   1.523       .  S
O46          C48   1.271       .  A
O47         Ni58   1.922   1_455  S
C48         C605   1.473       .  S
C48          O54   1.275       .  A
C49         C554   1.487       .  S
H50          O51   0.966       .  S
O51         Ni59   1.926       .  S
O51         Ni53   1.933   1_656  S
O51         Ni58   1.922       .  S
O52         Ni53   1.937   1_556  S
Ni53         O57   1.948       .  S
Ni53         O55   1.914   1_554  S
O54         Ni59   1.927   1_554  S
C56         C834   1.524       .  S
C56          O57   1.277       .  A
O61         Ni67   1.921       .  S
O61          C82   1.267       .  A
O62         Ni85   1.963       .  S
O62          C71   1.281       .  A
O63         Ni67   1.902       .  S
O63         Ni85   1.922   1_655  S
O63         Ni79   1.907       .  S
O63          H86   0.962       .  S
C64         C505   1.476       .  S
C64          O81   1.276       .  A
C64          O73   1.277       .  A
O65         Ni84   1.930       .  S
O65          C71   1.269       .  A
O66         Ni84   1.898   1_655  S
O66          C68   1.266       .  A
Ni67         O70   1.911   1_655  S
Ni67         O72   1.900   1_655  S
C68         C594   1.471       .  S
C68          O78   1.272       .  A
O69         Ni85   1.921       .  S
O69          C75   1.281       .  A
O70          C75   1.274       .  A
C71         C854   1.516       .  S
O72          C74   1.267       .  A
O73         Ni84   1.924   1_655  S
C74         C785   1.460       .  S
C74          O80   1.271       .  A
C75         C685   1.477       .  S
H76          O77   0.966       .  S
O77         Ni85   1.918       .  S
O77         Ni79   1.928   1_455  S
O77         Ni84   1.907       .  S
O78         Ni79   1.925       .  S
Ni79         O83   1.950       .  S
Ni79         O81   1.919       .  S
O80         Ni85   1.918       .  S
C82         C534   1.504       .  S
C82          O83   1.276       .  A
C87          C88   1.438       .  A
C87          C92   1.405       .  A
C87         C545   1.483       .  S
C88          C89   1.417       .  A
C88         C514   1.535       .  S
C89          C90   1.401       .  A
C89          H94   1.077       .  S
C90          C91   1.410       .  A
C90         C465   1.485       .  S
C91          C92   1.392       .  A
C91         C485   1.492       .  S
C92          H93   1.086       .  S
C95          C96   1.418       .  A
C95         C100   1.400       .  A
C95         C445   1.480       .  S
C96          C97   1.396       .  A
C96         C425   1.493       .  S
C97          C98   1.403       .  A
C97         H102   1.085       .  S
C98          C99   1.423       .  A
C98         C405   1.481       .  S
C99         C100   1.399       .  A
C99         C394   1.498       .  S
C100        H101   1.085       .  S
C103        C104   1.419       .  A
C103        C108   1.400       .  A
C103        C325   1.487       .  S
C104        C105   1.398       .  A
C104        C365   1.483       .  S
C105        C106   1.398       .  A
C105        H110   1.085       .  S
C106        C107   1.420       .  A
C106        C354   1.486       .  S
C107        C108   1.402       .  A
C107        C305   1.485       .  S
C108        H109   1.085       .  S
O111       Ni117   1.946       .  S
O111        C132   1.275       .  A
O112       Ni135   1.952       .  S
O112        C121   1.277       .  A
O113       Ni117   1.920       .  S
O113       Ni135   1.930   1_565  S
O113       Ni129   1.902       .  S
O113        H136   0.963       .  S
C114        C665   1.469       .  S
C114        O131   1.264       .  A
C114        O123   1.270       .  A
O115       Ni134   1.931       .  S
O115        C121   1.269       .  A
O116       Ni134   1.905   1_565  S
O116        C118   1.270       .  A
Ni117       O120   1.931   1_565  S
Ni117       O122   1.902   1_565  S
C118        C334   1.495       .  S
C118        O128   1.283       .  A
O119       Ni135   1.899       .  S
O119        C125   1.268       .  A
O120        C125   1.273       .  A
C121        C285   1.513       .  S
O122        C124   1.270       .  A
O123       Ni134   1.926   1_565  S
C124        C434   1.474       .  S
C124        O130   1.277       .  A
C125        C474   1.484       .  S
H126        O127   0.962       .  S
O127       Ni135   1.913       .  S
O127       Ni129   1.936   1_545  S
O127       Ni134   1.920       .  S
O128       Ni129   1.961       .  S
Ni129       O133   1.955       .  S
Ni129       O131   1.889       .  S
O130       Ni135   1.945       .  S
C132        C925   1.528       .  S
C132        O133   1.279       .  A
O137       Ni143   1.932       .  S
O137        C158   1.271       .  A
O138       Ni161   1.947       .  S
O138        C147   1.276       .  A
O139       Ni143   1.916       .  S
O139       Ni161   1.927       .  S
O139       Ni155   1.911       .  S
O139        H162   0.962       .  S
C140        C314   1.472       .  S
C140        O157   1.265       .  A
C140        O149   1.270       .  A
O141       Ni160   1.924       .  S
O141        C147   1.268       .  A
O142       Ni160   1.896       .  S
O142        C144   1.269       .  A
Ni143       O146   1.927       .  S
Ni143       O148   1.897       .  S
C144        C754   1.489       .  S
C144        O154   1.283       .  A
O145       Ni161   1.904       .  S
O145        C151   1.266       .  A
O146        C151   1.271       .  A
C147        C265   1.504       .  S
O148        C150   1.269       .  A
O149       Ni160   1.922       .  S
C150        C634   1.469       .  S
C150        O156   1.279       .  A
C151        C414   1.480       .  S
H152        O153   0.961       .  S
O153       Ni161   1.911       .  S
O153       Ni155   1.930       .  S
O153       Ni160   1.911       .  S
O154       Ni155   1.961       .  S
Ni155       O159   1.951       .  S
Ni155       O157   1.894       .  S
O156       Ni161   1.947       .  S
C158        C894   1.520       .  S
C158        O159   1.278       .  A
O163       Ni169   1.944       .  S
O163        C184   1.273       .  A
O164       Ni187   1.957   1_554  S
O164        C173   1.278       .  A
O165       Ni169   1.917       .  S
O165       Ni187   1.930   1_545  S
O165       Ni181   1.900   1_556  S
O165        H188   0.965       .  S
C166        C494   1.487       .  S
C166        O183   1.267       .  A
C166        O175   1.271       .  A
O167       Ni186   1.936       .  S
O167        C173   1.270       .  A
O168       Ni186   1.900   1_545  S
O168        C170   1.268       .  A
Ni169       O172   1.927   1_545  S
Ni169       O174   1.901   1_545  S
C170        C454   1.496       .  S
C170        O180   1.277       .  A
O171       Ni187   1.902       .  S
O171        C177   1.271       .  A
O172        C177   1.273       .  A
C173        C914   1.525       .  S
O174        C176   1.269       .  A
O175       Ni186   1.927   1_545  S
C176        C374   1.470       .  S
C176        O182   1.276       .  A
C177        C714   1.473       .  S
H178        O179   0.964       .  S
O179       Ni187   1.926   1_554  S
O179       Ni181   1.947   1_565  S
O179       Ni186   1.922       .  S
O180       Ni181   1.939       .  S
Ni181       O185   1.959   1_554  S
Ni181       O183   1.902       .  S
O182       Ni187   1.939       .  S
C184        C245   1.529       .  S
C184        O185   1.279       .  A
O189       Ni195   1.949       .  S
O189        C210   1.275       .  A
O190       Ni213   1.962       .  S
O190        C199   1.281       .  A
O191       Ni195   1.901       .  S
O191       Ni213   1.919   1_556  S
O191       Ni207   1.888       .  S
O191        H214   0.962       .  S
C192        C385   1.476       .  S
C192        O209   1.263       .  A
C192        O201   1.270       .  A
O193       Ni212   1.927       .  S
O193        C199   1.270       .  A
O194       Ni212   1.907       .  S
O194        C196   1.273       .  A
Ni195       O198   1.929       .  S
Ni195       O200   1.898       .  S
C196        C645   1.494       .  S
C196        O206   1.282       .  A
O197       Ni213   1.918   1_556  S
O197        C203   1.276       .  A
O198        C203   1.275       .  A
C199        C865   1.531       .  S
O200        C202   1.269       .  A
O201       Ni212   1.933       .  S
C202        C765   1.469       .  S
C202        O208   1.273       .  A
C203        C345   1.483       .  S
H204        O205   0.961       .  S
O205       Ni213   1.939       .  S
O205       Ni207   1.928   1_554  S
O205       Ni212   1.908       .  S
O206       Ni207   1.950   1_554  S
Ni207       O211   1.945       .  S
Ni207       O209   1.898   1_556  S
O208       Ni213   1.939   1_556  S
C210        C225   1.525       .  S
C210        O211   1.277       .  A
C215        H216   1.107       .  S
C215        C221   1.579       .  S
C215        C220   1.578       .  S
C215        C219   1.578       .  S
C217        H218   1.107       .  S
C217        C223   1.570       .  S
C217        C222   1.572       .  S
C217        C224   1.571       .  S
C219        C222   1.396       .  D
C219        C234   1.552       .  S
C220        C223   1.394       .  D
C220        C574   1.552       .  S
C221        C224   1.396       .  D
C221        C254   1.552       .  S
C222        C274   1.547       .  S
C223        C525   1.543       .  S
C224        C294   1.550       .  S
C225        C226   1.422       .  A
C225        C230   1.425       .  A
C226        C227   1.427       .  A
C226       Br238   1.930       .  S
C227        C228   1.416       .  A
C227       Br242   1.927       .  S
C228        C229   1.411       .  A
C228        C231   1.524       .  S
C229        C230   1.420       .  A
C229       Br237   1.928       .  S
C230       Br241   1.934       .  S
C231        C232   1.409       .  A
C231        C236   1.410       .  A
C232        C233   1.425       .  A
C232       Br243   1.932       .  S
C233        C234   1.430       .  A
C233       Br239   1.920       .  S
C234        C235   1.428       .  A
C235        C236   1.425       .  A
C235       Br244   1.923       .  S
C236       Br240   1.929       .  S
C245        C246   1.421       .  A
C245        C250   1.426       .  A
C246        C247   1.428       .  A
C246       Br258   1.927       .  S
C247        C248   1.416       .  A
C247       Br262   1.927       .  S
C248        C249   1.412       .  A
C248        C251   1.527       .  S
C249        C250   1.423       .  A
C249       Br257   1.929       .  S
C250       Br261   1.933       .  S
C251        C252   1.410       .  A
C251        C256   1.411       .  A
C252        C253   1.426       .  A
C252       Br263   1.931       .  S
C253        C254   1.430       .  A
C253       Br259   1.921       .  S
C254        C255   1.428       .  A
C255        C256   1.426       .  A
C255       Br264   1.924       .  S
C256       Br260   1.929       .  S
C265        C266   1.415       .  A
C265        C270   1.414       .  A
C266        C267   1.417       .  A
C266       Br278   1.930       .  S
C267        C268   1.412       .  A
C267       Br282   1.928       .  S
C268        C269   1.416       .  A
C268        C271   1.515       .  S
C269        C270   1.422       .  A
C269       Br277   1.927       .  S
C270       Br281   1.928       .  S
C271        C272   1.408       .  A
C271        C276   1.406       .  A
C272        C273   1.422       .  A
C272       Br283   1.931       .  S
C273        C274   1.428       .  A
C273       Br279   1.922       .  S
C274        C275   1.430       .  A
C275        C276   1.421       .  A
C275       Br284   1.919       .  S
C276       Br280   1.933       .  S
C285        C286   1.417       .  A
C285        C290   1.416       .  A
C286        C287   1.420       .  A
C286       Br298   1.930       .  S
C287        C288   1.414       .  A
C287       Br302   1.929       .  S
C288        C289   1.418       .  A
C288        C291   1.523       .  S
C289        C290   1.425       .  A
C289       Br297   1.928       .  S
C290       Br301   1.928       .  S
C291        C292   1.411       .  A
C291        C296   1.409       .  A
C292        C293   1.424       .  A
C292       Br303   1.930       .  S
C293        C294   1.427       .  A
C293       Br299   1.924       .  S
C294        C295   1.430       .  A
C295        C296   1.424       .  A
C295       Br304   1.920       .  S
C296       Br300   1.933       .  S
C305        C306   1.418       .  A
C305        C310   1.410       .  A
C306        C307   1.401       .  A
C306       Br318   1.934       .  S
C307        C308   1.405       .  A
C307       Br322   1.935       .  S
C308        C309   1.407       .  A
C308        C311   1.474       .  S
C309        C310   1.404       .  A
C309       Br317   1.930       .  S
C310       Br321   1.924       .  S
C311        C312   1.407       .  A
C311        C316   1.407       .  A
C312        C313   1.401       .  A
C312       Br323   1.931       .  S
C313        C314   1.414       .  A
C313       Br319   1.935       .  S
C314        C315   1.414       .  A
C315        C316   1.404       .  A
C315       Br324   1.932       .  S
C316       Br320   1.932       .  S
C325        C326   1.414       .  A
C325        C330   1.411       .  A
C326        C327   1.409       .  A
C326       Br338   1.932       .  S
C327        C328   1.408       .  A
C327       Br342   1.928       .  S
C328        C329   1.408       .  A
C328        C331   1.483       .  S
C329        C330   1.404       .  A
C329       Br337   1.934       .  S
C330       Br341   1.924       .  S
C331        C332   1.404       .  A
C331        C336   1.406       .  A
C332        C333   1.408       .  A
C332       Br343   1.931       .  S
C333        C334   1.424       .  A
C333       Br339   1.936       .  S
C334        C335   1.418       .  A
C335        C336   1.407       .  A
C335       Br344   1.927       .  S
C336       Br340   1.932       .  S
C345        C346   1.412       .  A
C345        C350   1.419       .  A
C346        C347   1.407       .  A
C346       Br358   1.926       .  S
C347        C348   1.410       .  A
C347       Br362   1.932       .  S
C348        C349   1.404       .  A
C348        C351   1.479       .  S
C349        C350   1.404       .  A
C349       Br357   1.932       .  S
C350       Br361   1.935       .  S
C351        C352   1.407       .  A
C351        C356   1.407       .  A
C352        C353   1.402       .  A
C352       Br363   1.934       .  S
C353        C354   1.412       .  A
C353       Br359   1.924       .  S
C354        C355   1.416       .  A
C355        C356   1.408       .  A
C355       Br364   1.933       .  S
C356       Br360   1.929       .  S
C365        C366   1.418       .  A
C365        C370   1.409       .  A
C366        C367   1.402       .  A
C366       Br378   1.935       .  S
C367        C368   1.405       .  A
C367       Br382   1.932       .  S
C368        C369   1.406       .  A
C368        C371   1.472       .  S
C369        C370   1.402       .  A
C369       Br377   1.929       .  S
C370       Br381   1.923       .  S
C371        C372   1.404       .  A
C371        C376   1.407       .  A
C372        C373   1.401       .  A
C372       Br383   1.932       .  S
C373        C374   1.413       .  A
C373       Br379   1.931       .  S
C374        C375   1.410       .  A
C375        C376   1.405       .  A
C375       Br384   1.925       .  S
C376       Br380   1.930       .  S
C385        C386   1.411       .  A
C385        C390   1.413       .  A
C386        C387   1.404       .  A
C386       Br398   1.933       .  S
C387        C388   1.410       .  A
C387       Br402   1.931       .  S
C388        C389   1.408       .  A
C388        C391   1.481       .  S
C389        C390   1.407       .  A
C389       Br397   1.930       .  S
C390       Br401   1.931       .  S
C391        C392   1.402       .  A
C391        C396   1.408       .  A
C392        C393   1.403       .  A
C392       Br403   1.934       .  S
C393        C394   1.425       .  A
C393       Br399   1.935       .  S
C394        C395   1.413       .  A
C395        C396   1.408       .  A
C395       Br404   1.924       .  S
C396       Br400   1.928       .  S
C405        C406   1.412       .  A
C405        C410   1.416       .  A
C406        C407   1.404       .  A
C406       Br418   1.927       .  S
C407        C408   1.407       .  A
C407       Br422   1.931       .  S
C408        C409   1.406       .  A
C408        C411   1.475       .  S
C409        C410   1.403       .  A
C409       Br417   1.931       .  S
C410       Br421   1.935       .  S
C411        C412   1.408       .  A
C411        C416   1.403       .  A
C412        C413   1.407       .  A
C412       Br423   1.932       .  S
C413        C414   1.417       .  A
C413       Br419   1.932       .  S
C414        C415   1.417       .  A
C415        C416   1.401       .  A
C415       Br424   1.935       .  S
C416       Br420   1.933       .  S
C425        C426   1.411       .  A
C425        C430   1.421       .  A
C426        C427   1.405       .  A
C426       Br438   1.924       .  S
C427        C428   1.407       .  A
C427       Br442   1.930       .  S
C428        C429   1.407       .  A
C428        C431   1.481       .  S
C429        C430   1.406       .  A
C429       Br437   1.934       .  S
C430       Br441   1.937       .  S
C431        C432   1.409       .  A
C431        C436   1.408       .  A
C432        C433   1.406       .  A
C432       Br443   1.930       .  S
C433        C434   1.409       .  A
C433       Br439   1.924       .  S
C434        C435   1.412       .  A
C435        C436   1.405       .  A
C435       Br444   1.931       .  S
C436       Br440   1.932       .  S
C445        C446   1.415       .  A
C445        C450   1.413       .  A
C446        C447   1.404       .  A
C446       Br458   1.932       .  S
C447        C448   1.404       .  A
C447       Br462   1.929       .  S
C448        C449   1.405       .  A
C448        C451   1.471       .  S
C449        C450   1.400       .  A
C449       Br457   1.934       .  S
C450       Br461   1.926       .  S
C451        C452   1.401       .  A
C451        C456   1.402       .  A
C452        C453   1.405       .  A
C452       Br463   1.935       .  S
C453        C454   1.427       .  A
C453       Br459   1.937   1_545  S
C454        C455   1.423       .  A
C455        C456   1.404       .  A
C455       Br464   1.934       .  S
C456       Br460   1.933       .  S
C465        C466   1.414       .  A
C465        C470   1.409       .  A
C466        C467   1.405       .  A
C466       Br478   1.931       .  S
C467        C468   1.408       .  A
C467       Br482   1.931       .  S
C468        C469   1.407       .  A
C468        C471   1.477       .  S
C469        C470   1.401       .  A
C469       Br477   1.932       .  S
C470       Br481   1.921       .  S
C471        C472   1.406       .  A
C471        C476   1.406       .  A
C472        C473   1.404       .  A
C472       Br483   1.934       .  S
C473        C474   1.420       .  A
C473       Br479   1.936       .  S
C474        C475   1.418       .  A
C475        C476   1.405       .  A
C475       Br484   1.933       .  S
C476       Br480   1.934       .  S
C485        C486   1.418       .  A
C485        C490   1.412       .  A
C486        C487   1.406       .  A
C486       Br498   1.935       .  S
C487        C488   1.406       .  A
C487       Br502   1.931       .  S
C488        C489   1.408       .  A
C488        C491   1.483       .  S
C489        C490   1.408       .  A
C489       Br497   1.930       .  S
C490       Br501   1.924       .  S
C491        C492   1.405       .  A
C491        C496   1.407       .  A
C492        C493   1.406       .  A
C492       Br503   1.930       .  S
C493        C494   1.419       .  A
C493       Br499   1.936       .  S
C494        C495   1.418       .  A
C495        C496   1.408       .  A
C495       Br504   1.933       .  S
C496       Br500   1.931       .  S
C505        C506   1.410       .  A
C505        C510   1.412       .  A
C506        C507   1.408       .  A
C506       Br518   1.930       .  S
C507        C508   1.409       .  A
C507       Br522   1.929       .  S
C508        C509   1.409       .  A
C508        C511   1.483       .  S
C509        C510   1.407       .  A
C509       Br517   1.930       .  S
C510       Br521   1.931   1_655  S
C511        C512   1.406       .  A
C511        C516   1.407       .  A
C512        C513   1.409       .  A
C512       Br523   1.929       .  S
C513        C514   1.422       .  A
C513       Br519   1.931       .  S
C514        C515   1.411       .  A
C515        C516   1.406       .  A
C515       Br524   1.921       .  S
C516       Br520   1.925       .  S
C525        C526   1.430       .  A
C525        C530   1.427       .  A
C526        C527   1.421       .  A
C526       Br538   1.920       .  S
C527        C528   1.407       .  A
C527       Br542   1.934       .  S
C528        C529   1.408       .  A
C528        C531   1.513       .  S
C529        C530   1.420       .  A
C529       Br537   1.931       .  S
C530       Br541   1.922       .  S
C531        C532   1.417       .  A
C531        C536   1.411       .  A
C532        C533   1.422       .  A
C532       Br543   1.927       .  S
C533        C534   1.414       .  A
C533       Br539   1.928       .  S
C534        C535   1.418       .  A
C535        C536   1.415       .  A
C535       Br544   1.932       .  S
C536       Br540   1.931       .  S
C545        C546   1.412       .  A
C545        C550   1.417       .  A
C546        C547   1.403       .  A
C546       Br558   1.932       .  S
C547        C548   1.409       .  A
C547       Br562   1.932       .  S
C548        C549   1.407       .  A
C548        C551   1.480       .  S
C549        C550   1.407       .  A
C549       Br557   1.928       .  S
C550       Br561   1.932       .  S
C551        C552   1.407       .  A
C551        C556   1.404       .  A
C552        C553   1.409       .  A
C552       Br563   1.930       .  S
C553        C554   1.417       .  A
C553       Br559   1.930       .  S
C554        C555   1.418       .  A
C555        C556   1.404       .  A
C555       Br564   1.935   1_655  S
C556       Br560   1.930       .  S
C565        C566   1.418       .  A
C565        C570   1.420       .  A
C566        C567   1.428       .  A
C566       Br578   1.925       .  S
C567        C568   1.418       .  A
C567       Br582   1.927       .  S
C568        C569   1.414       .  A
C568        C571   1.529       .  S
C569        C570   1.423       .  A
C569       Br577   1.929       .  S
C570       Br581   1.928       .  S
C571        C572   1.411       .  A
C571        C576   1.412       .  A
C572        C573   1.426       .  A
C572       Br583   1.930       .  S
C573        C574   1.428       .  A
C573       Br579   1.922       .  S
C574        C575   1.429       .  A
C575        C576   1.427       .  A
C575       Br584   1.922       .  S
C576       Br580   1.931       .  S
C585        C586   1.414       .  A
C585        C590   1.417       .  A
C586        C587   1.408       .  A
C586       Br598   1.924       .  S
C587        C588   1.405       .  A
C587       Br602   1.928       .  S
C588        C589   1.404       .  A
C588        C591   1.476       .  S
C589        C590   1.401       .  A
C589       Br597   1.936       .  S
C590       Br601   1.926       .  S
C591        C592   1.406       .  A
C591        C596   1.405       .  A
C592        C593   1.401       .  A
C592       Br603   1.919       .  S
C593        C594   1.409       .  A
C593       Br599   1.934       .  S
C594        C595   1.413       .  A
C595        C596   1.405       .  A
C595       Br604   1.925       .  S
C596       Br600   1.929       .  S
C605        C606   1.414       .  A
C605        C610   1.412       .  A
C606        C607   1.401       .  A
C606       Br618   1.931       .  S
C607        C608   1.407       .  A
C607       Br622   1.933       .  S
C608        C609   1.409       .  A
C608        C611   1.472       .  S
C609        C610   1.400       .  A
C609       Br617   1.936       .  S
C610       Br621   1.929       .  S
C611        C612   1.406       .  A
C611        C616   1.409       .  A
C612        C613   1.399       .  A
C612       Br623   1.935       .  S
C613        C614   1.415       .  A
C613       Br619   1.935       .  S
C614        C615   1.412       .  A
C615        C616   1.402       .  A
C615       Br624   1.926       .  S
C616       Br620   1.936       .  S
C625        C626   1.407       .  A
C625        C630   1.412       .  A
C626        C627   1.403       .  A
C626       Br638   1.923       .  S
C627        C628   1.409       .  A
C627       Br642   1.930       .  S
C628        C629   1.406       .  A
C628        C631   1.472       .  S
C629        C630   1.399       .  A
C629       Br637   1.935       .  S
C630       Br641   1.928       .  S
C631        C632   1.407       .  A
C631        C636   1.408       .  A
C632        C633   1.400       .  A
C632       Br643   1.934       .  S
C633        C634   1.409       .  A
C633       Br639   1.921       .  S
C634        C635   1.413       .  A
C635        C636   1.403       .  A
C635       Br644   1.932       .  S
C636       Br640   1.932       .  S
C645        C646   1.424       .  A
C645        C650   1.427       .  A
C646        C647   1.402       .  A
C646       Br658   1.932       .  S
C647        C648   1.400       .  A
C647       Br662   1.935       .  S
C648        C649   1.400       .  A
C648        C651   1.469       .  S
C649        C650   1.405       .  A
C649       Br657   1.933       .  S
C650       Br661   1.934       .  S
C651        C652   1.408       .  A
C651        C656   1.405       .  A
C652        C653   1.398       .  A
C652       Br663   1.932       .  S
C653        C654   1.406       .  A
C653       Br659   1.924       .  S
C654        C655   1.411       .  A
C655        C656   1.403       .  A
C655       Br664   1.930       .  S
C656       Br660   1.928       .  S
C665        C666   1.413       .  A
C665        C670   1.413       .  A
C666        C667   1.403       .  A
C666       Br678   1.933       .  S
C667        C668   1.406       .  A
C667       Br682   1.930       .  S
C668        C669   1.407       .  A
C668        C671   1.473       .  S
C669        C670   1.401       .  A
C669       Br677   1.928       .  S
C670       Br681   1.935       .  S
C671        C672   1.405       .  A
C671        C676   1.401       .  A
C672        C673   1.406       .  A
C672       Br683   1.929       .  S
C673        C674   1.413       .  A
C673       Br679   1.921       .  S
C674        C675   1.419       .  A
C675        C676   1.401       .  A
C675       Br684   1.919       .  S
C676       Br680   1.937       .  S
C685        C686   1.413       .  A
C685        C690   1.419       .  A
C686        C687   1.404       .  A
C686       Br698   1.931       .  S
C687        C688   1.406       .  A
C687       Br702   1.929       .  S
C688        C689   1.405       .  A
C688        C691   1.472       .  S
C689        C690   1.402       .  A
C689       Br697   1.935       .  S
C690       Br701   1.936       .  S
C691        C692   1.403       .  A
C691        C696   1.406       .  A
C692        C693   1.399       .  A
C692       Br703   1.936       .  S
C693        C694   1.413       .  A
C693       Br699   1.920       .  S
C694        C695   1.411       .  A
C695        C696   1.406       .  A
C695       Br704   1.922       .  S
C696       Br700   1.928       .  S
C705        C706   1.411       .  A
C705        C710   1.417       .  A
C706        C707   1.405       .  A
C706       Br718   1.926       .  S
C707        C708   1.408       .  A
C707       Br722   1.932       .  S
C708        C709   1.405       .  A
C708        C711   1.478       .  S
C709        C710   1.402       .  A
C709       Br717   1.934       .  S
C710       Br721   1.929       .  S
C711        C712   1.408       .  A
C711        C716   1.408       .  A
C712        C713   1.404       .  A
C712       Br723   1.932       .  S
C713        C714   1.413       .  A
C713       Br719   1.930       .  S
C714        C715   1.413       .  A
C715        C716   1.403       .  A
C715       Br724   1.933       .  S
C716       Br720   1.933       .  S
C725        C726   1.415       .  A
C725        C730   1.414       .  A
C726        C727   1.402       .  A
C726       Br738   1.934   1_455  S
C727        C728   1.405       .  A
C727       Br742   1.932       .  S
C728        C729   1.410       .  A
C728        C731   1.479       .  S
C729        C730   1.408       .  A
C729       Br737   1.932       .  S
C730       Br741   1.929       .  S
C731        C732   1.408       .  A
C731        C736   1.406       .  A
C732        C733   1.403       .  A
C732       Br743   1.933       .  S
C733        C734   1.410       .  A
C733       Br739   1.922       .  S
C734        C735   1.414       .  A
C735        C736   1.405       .  A
C735       Br744   1.925       .  S
C736       Br740   1.931       .  S
C745        C746   1.413       .  A
C745        C750   1.414       .  A
C746        C747   1.399       .  A
C746       Br758   1.925       .  S
C747        C748   1.404       .  A
C747       Br762   1.935       .  S
C748        C749   1.407       .  A
C748        C751   1.475       .  S
C749        C750   1.409       .  A
C749       Br757   1.928       .  S
C750       Br761   1.930       .  S
C751        C752   1.405       .  A
C751        C756   1.401       .  A
C752        C753   1.406       .  A
C752       Br763   1.933       .  S
C753        C754   1.419       .  A
C753       Br759   1.927       .  S
C754        C755   1.424       .  A
C755        C756   1.404       .  A
C755       Br764   1.937       .  S
C756       Br760   1.932       .  S
C765        C766   1.412       .  A
C765        C770   1.413       .  A
C766        C767   1.402       .  A
C766       Br778   1.925       .  S
C767        C768   1.406       .  A
C767       Br782   1.933       .  S
C768        C769   1.404       .  A
C768        C771   1.469       .  S
C769        C770   1.401       .  A
C769       Br777   1.929       .  S
C770       Br781   1.933       .  S
C771        C772   1.406       .  A
C771        C776   1.403       .  A
C772        C773   1.402       .  A
C772       Br783   1.931       .  S
C773        C774   1.409       .  A
C773       Br779   1.925       .  S
C774        C775   1.420       .  A
C775        C776   1.401       .  A
C775       Br784   1.937       .  S
C776       Br780   1.933       .  S
C785        C786   1.407       .  A
C785        C790   1.402       .  A
C786        C787   1.406       .  A
C786       Br798   1.930       .  S
C787        C788   1.410       .  A
C787       Br802   1.930       .  S
C788        C789   1.415       .  A
C788        C791   1.481       .  S
C789        C790   1.400       .  A
C789       Br797   1.924       .  S
C790       Br801   1.932       .  S
C791        C792   1.408       .  A
C791        C796   1.403       .  A
C792        C793   1.406       .  A
C792       Br803   1.927       .  S
C793        C794   1.413       .  A
C793       Br799   1.926       .  S
C794        C795   1.428       .  A
C795        C796   1.403       .  A
C795       Br804   1.934       .  S
C796       Br800   1.936       .  S
C805        C806   1.408       .  A
C805        C810   1.416       .  A
C806        C807   1.400       .  A
C806       Br818   1.926       .  S
C807        C808   1.408       .  A
C807       Br822   1.930       .  S
C808        C809   1.408       .  A
C808        C811   1.479       .  S
C809        C810   1.405       .  A
C809       Br817   1.931       .  S
C810       Br821   1.933       .  S
C811        C812   1.409       .  A
C811        C816   1.407       .  A
C812        C813   1.403       .  A
C812       Br823   1.934       .  S
C813        C814   1.415       .  A
C813       Br819   1.935       .  S
C814        C815   1.415       .  A
C815        C816   1.403       .  A
C815       Br824   1.932   1_455  S
C816       Br820   1.931       .  S
C825        C826   1.430       .  A
C825        C830   1.431       .  A
C826        C827   1.428       .  A
C826       Br838   1.924       .  S
C827        C828   1.411       .  A
C827       Br842   1.930       .  S
C828        C829   1.409       .  A
C828        C831   1.527       .  S
C829        C830   1.425       .  A
C829       Br837   1.933       .  S
C830       Br841   1.919       .  S
C831        C832   1.413       .  A
C831        C836   1.416       .  A
C832        C833   1.423       .  A
C832       Br843   1.928       .  S
C833        C834   1.419       .  A
C833       Br839   1.924       .  S
C834        C835   1.419       .  A
C835        C836   1.426       .  A
C835       Br844   1.926       .  S
C836       Br840   1.927       .  S
C845        C846   1.431       .  A
C845        C850   1.427       .  A
C846        C847   1.422       .  A
C846       Br858   1.919       .  S
C847        C848   1.408       .  A
C847       Br862   1.934       .  S
C848        C849   1.411       .  A
C848        C851   1.521       .  S
C849        C850   1.425       .  A
C849       Br857   1.928       .  S
C850       Br861   1.926       .  S
C851        C852   1.411       .  A
C851        C856   1.417       .  A
C852        C853   1.417       .  A
C852       Br863   1.928       .  S
C853        C854   1.420       .  A
C853       Br859   1.933       .  S
C854        C855   1.418       .  A
C855        C856   1.427       .  A
C855       Br864   1.925       .  S
C856       Br860   1.927       .  S
C865        C866   1.423       .  A
C865        C870   1.429       .  A
C866        C867   1.427       .  A
C866       Br878   1.929       .  S
C867        C868   1.417       .  A
C867       Br882   1.929       .  S
C868        C869   1.411       .  A
C868        C871   1.526       .  S
C869        C870   1.419       .  A
C869       Br877   1.932       .  S
C870       Br881   1.934       .  S
C871        C872   1.413       .  A
C871        C876   1.412       .  A
C872        C873   1.424       .  A
C872       Br883   1.932       .  S
C873        C874   1.425       .  A
C873       Br879   1.921       .  S
C874        C875   1.428       .  A
C875        C876   1.424       .  A
C875       Br884   1.919       .  S
C876       Br880   1.932       .  S
C885        C886   1.428       .  A
C885        C890   1.428       .  A
C886        C887   1.425       .  A
C886       Br898   1.922       .  S
C887        C888   1.410       .  A
C887       Br902   1.930       .  S
C888        C889   1.408       .  A
C888        C891   1.519       .  S
C889        C890   1.421       .  A
C889       Br897   1.933       .  S
C890       Br901   1.917       .  S
C891        C892   1.410       .  A
C891        C896   1.415       .  A
C892        C893   1.419       .  A
C892       Br903   1.930       .  S
C893        C894   1.423       .  A
C893       Br899   1.933       .  S
C894        C895   1.419       .  A
C895        C896   1.425       .  A
C895       Br904   1.925       .  S
C896       Br900   1.927       .  S
C905        C906   1.431       .  A
C905        C910   1.428       .  A
C906        C907   1.426       .  A
C906       Br918   1.920       .  S
C907        C908   1.411       .  A
C907       Br922   1.933       .  S
C908        C909   1.414       .  A
C908        C911   1.532       .  S
C909        C910   1.428       .  A
C909       Br917   1.928       .  S
C910       Br921   1.926       .  S
C911        C912   1.416       .  A
C911        C916   1.419       .  A
C912        C913   1.423       .  A
C912       Br923   1.929       .  S
C913        C914   1.421       .  A
C913       Br919   1.931       .  S
C914        C915   1.419       .  A
C915        C916   1.428       .  A
C915       Br924   1.927       .  S
C916       Br920   1.927       .  S
C925        C926   1.423       .  A
C925        C930   1.420       .  A
C926        C927   1.424       .  A
C926       Br938   1.932       .  S
C927        C928   1.413       .  A
C927       Br942   1.926       .  S
C928        C929   1.416       .  A
C928        C931   1.529       .  S
C929        C930   1.427       .  A
C929       Br937   1.928       .  S
C930       Br941   1.924       .  S
C931        C932   1.411       .  A
C931        C936   1.411       .  A
C932        C933   1.428       .  A
C932       Br943   1.931       .  S
C933        C934   1.432       .  A
C933       Br939   1.922       .  S
C934        C935   1.429       .  A
C935        C936   1.426       .  A
C935       Br944   1.922       .  S
C936       Br940   1.930       .  S
