geometry optimzed in LAMMPS
_audit_creation_date              2020-11-30 
_audit_creation_method            'lammps2cif' 
_symmetry_space_group_name_H-M    'P1' 
_symmetry_Int_Tables_number       1 
_symmetry_cell_setting            triclinic 
loop_ 
_symmetry_equiv_pos_as_xyz 
  x,y,z 
_cell_length_a                    42.89265946 
_cell_length_b                    42.62965189128104 
_cell_length_c                    42.66812380053517 
_cell_angle_alpha                 90.03822546898044 
_cell_angle_beta                  89.9858905589564 
_cell_angle_gamma                 89.91079146746742 
loop_ 
_atom_site_label 
_atom_site_type_symbol 
_atom_site_fract_x 
_atom_site_fract_y 
_atom_site_fract_z 
_atom_site_charge 
Zn1        Zn  0.02874967  0.02665241  0.02755481     1.49700
Zn2        Zn  0.99682565  0.96031936  0.02268524     1.49400
Zn3        Zn  0.96220649  0.02249967  0.99664623     1.49100
Zn4        Zn  0.02364205  0.99580737  0.96099155     1.49500
O5          O  0.00249993  0.00099936  0.00159211    -1.85200
O6          O  0.03650055  0.00694239  0.06867438    -0.75800
O7          O  0.95113325  0.95206095  0.02922717    -0.75600
O8          O  0.96055545  0.06427653  0.02091686    -0.75200
O9          O  0.01914781  0.95807445  0.06506866    -0.75800
O10         O  0.00978487  0.06803135  0.03650359    -0.75400
O11         O  0.92679154  0.99383661  0.00980446    -0.76000
O12         O  0.99540813  0.01028080  0.92570708    -0.75400
O13         O  0.01083614  0.92504013  0.99440043    -0.76200
O14         O  0.95430262  0.03011014  0.95068134    -0.75600
O15         O  0.03007778  0.94979645  0.95278414    -0.76000
O16         O  0.06616489  0.01802766  0.95928309    -0.75900
O17         O  0.07014821  0.03442716  0.00845464    -0.75700
C18         C  0.03279034  0.97983594  0.08033127     0.76100
C19         C  0.92615756  0.96651585  0.02192339     0.76600
C20         C  0.98252138  0.07942588  0.03431819     0.75500
C21         C  0.96843828  0.02290767  0.92536813     0.75900
C22         C  0.02302278  0.92459722  0.96717574     0.77000
C23         C  0.08165363  0.03111854  0.98124580     0.76100
C24         C  0.05986340  0.28461776  0.14651451     0.79200
N25         N  0.05678409  0.30916185  0.12665764    -0.79100
C26         C  0.03192423  0.31193283  0.10730726     0.81600
N27         N  0.00954408  0.28927938  0.10771187    -0.79100
C28         C  0.01215035  0.26444657  0.12771099     0.81700
N29         N  0.03730454  0.26219505  0.14711343    -0.80800
C30         C  0.94281644  0.21734385  0.14969072     0.79200
N31         N  0.96463044  0.24055153  0.14912197    -0.79100
C32         C  0.98828462  0.23970258  0.12790713     0.81600
N33         N  0.99011925  0.21552944  0.10719038    -0.79100
C34         C  0.96832617  0.19232535  0.10741821     0.81700
N35         N  0.94486660  0.19346204  0.12873326    -0.80800
C36         C  0.78187696  0.14396046  0.44179409     0.79200
N37         N  0.75964806  0.14568559  0.46457953    -0.79100
C38         C  0.76071949  0.12570770  0.48946902     0.81600
N39         N  0.78397667  0.10413204  0.49154369    -0.79100
C40         C  0.80617693  0.10230523  0.46889839     0.81700
N41         N  0.80483227  0.12219338  0.44422616    -0.80800
C42         C  0.69075729  0.10265910  0.53436868     0.79200
N43         N  0.71243033  0.10467986  0.51118992    -0.79100
C44         C  0.73603835  0.12583512  0.51324263     0.81600
N45         N  0.73807811  0.14499094  0.53868947    -0.79100
C46         C  0.71641040  0.14307539  0.56195107     0.81700
N47         N  0.69304857  0.12184644  0.55951809    -0.80800
Zn48       Zn  0.74443139  0.27023140  0.29095823     1.49700
Zn49       Zn  0.77671594  0.27489408  0.22526807     1.49400
Zn50       Zn  0.77152372  0.20802657  0.25602346     1.49100
Zn51       Zn  0.71063081  0.24341064  0.22818968     1.49500
O52         O  0.75045122  0.24872318  0.25051405    -1.85200
O53         O  0.76682847  0.31287383  0.29346720    -0.75800
O54         O  0.81781003  0.25566589  0.21767536    -0.75600
O55         O  0.77834079  0.20058846  0.30218636    -0.75200
O56         O  0.78478231  0.31599603  0.24485774    -0.75800
O57         O  0.75877073  0.24239018  0.32652156    -0.75400
O58         O  0.81398275  0.20624036  0.23345009    -0.76000
O59         O  0.70275723  0.19742987  0.22066712    -0.75400
O60         O  0.75832088  0.28393625  0.18386413    -0.76200
O61         O  0.74319242  0.17249106  0.24179728    -0.75600
O62         O  0.70935419  0.26745411  0.18641137    -0.76000
O63         O  0.67481732  0.25687304  0.25592384    -0.75900
O64         O  0.69841456  0.27642044  0.29807633    -0.75700
C65         C  0.78096490  0.32786236  0.27183905     0.76100
C66         C  0.82936185  0.22843225  0.22061345     0.76600
C67         C  0.77143491  0.21533564  0.32727153     0.75500
C68         C  0.71654977  0.17210523  0.22849730     0.75900
C69         C  0.73140189  0.28132197  0.17186591     0.77000
C70         C  0.67370791  0.26920726  0.28310709     0.76100
C71         C  0.80868008  0.60389919  0.53330607     0.79200
N72         N  0.78606082  0.60342915  0.51095264    -0.79100
C73         C  0.76213287  0.62426671  0.51198230     0.81600
N74         N  0.76070392  0.64564520  0.53551803    -0.79100
C75         C  0.78316283  0.64634753  0.55802752     0.81700
N76         N  0.80704449  0.62544157  0.55671763    -0.80800
C77         C  0.71649046  0.64380465  0.44103940     0.79200
N78         N  0.73878632  0.64440690  0.46372162    -0.79100
C79         C  0.73791401  0.62362304  0.48779835     0.81600
N80         N  0.71461137  0.60215461  0.48930202    -0.79100
C81         C  0.69221888  0.60130334  0.46672857     0.81700
N82         N  0.69337048  0.62216415  0.44273415    -0.80800
Zn83       Zn  0.97303982  0.52596755  0.47205416     1.49700
Zn84       Zn  0.03935890  0.52172401  0.50328446     1.49400
Zn85       Zn  0.97831021  0.49554054  0.53889644     1.49100
Zn86       Zn  0.00433257  0.45948013  0.47747449     1.49500
O87         O  0.99914296  0.50031690  0.49823259    -1.85200
O88         O  0.99179026  0.56748716  0.46395214    -0.75800
O89         O  0.04769083  0.52900887  0.54916798    -0.75600
O90         O  0.93690976  0.51928463  0.54090255    -0.75200
O91         O  0.04083520  0.56376460  0.48008058    -0.75800
O92         O  0.93172560  0.53388336  0.49123244    -0.75400
O93         O  0.00663762  0.50936096  0.57414125    -0.76000
O94         O  0.98972150  0.42434452  0.50592505    -0.75400
O95         O  0.07453082  0.49346434  0.48908740    -0.76200
O96         O  0.97053237  0.44982145  0.54716733    -0.75600
O97         O  0.05002627  0.45125024  0.47090959    -0.76000
O98         O  0.98206649  0.45753446  0.43496971    -0.75900
O99         O  0.96559853  0.50670569  0.43052707    -0.75700
C100        C  0.01889506  0.57901530  0.46677643     0.76100
C101        C  0.03356172  0.52192650  0.57447440     0.76600
C102        C  0.92109485  0.53187092  0.51891908     0.75500
C103        C  0.97717200  0.42433887  0.53301967     0.75900
C104        C  0.07506148  0.46597593  0.47733129     0.77000
C105        C  0.96892552  0.47934628  0.41927902     0.76100
C106        C  0.44081323  0.77838016  0.14437896     0.79200
N107        N  0.44318198  0.80158720  0.12277703    -0.79100
C108        C  0.46769942  0.80311907  0.10284965     0.81600
N109        N  0.49031737  0.78077689  0.10449722    -0.79100
C110        C  0.48828347  0.75722687  0.12590144     0.81700
N111        N  0.46354967  0.75606993  0.14591737    -0.80800
C112        C  0.56003553  0.71276960  0.14537901     0.79200
N113        N  0.53718455  0.73498192  0.14600804    -0.79100
C114        C  0.51221661  0.73257891  0.12641389     0.81600
N115        N  0.51021313  0.70802417  0.10607517    -0.79100
C116        C  0.53284402  0.68563151  0.10558111     0.81700
N117        N  0.55747609  0.68836229  0.12522161    -0.80800
C118        C  0.10517341  0.03265829  0.31111228     0.79200
N119        N  0.10519753  0.01005073  0.28856547    -0.79100
C120        C  0.12535081  0.01196133  0.26394279     0.81600
N121        N  0.14526758  0.03673921  0.26167402    -0.79100
C122        C  0.14502484  0.05964987  0.28392167     0.81700
N123        N  0.12504715  0.05719091  0.30840319    -0.80800
C124        C  0.14680361  0.94175464  0.21732416     0.79200
N125        N  0.14684616  0.96432775  0.23993782    -0.79100
C126        C  0.12520558  0.98762679  0.23957826     0.81600
N127        N  0.10346460  0.98841419  0.21646850    -0.79100
C128        C  0.10314732  0.96594509  0.19379076     0.81700
N129        N  0.12486242  0.94275795  0.19442032    -0.80800
Zn130      Zn  0.25709923  0.77210254  0.21047813     1.49700
Zn131      Zn  0.22929868  0.71099744  0.24556373     1.49400
Zn132      Zn  0.29078603  0.74583716  0.27318096     1.49100
Zn133      Zn  0.22466866  0.77767958  0.27637081     1.49500
O134        O  0.25084680  0.75130768  0.25106606    -1.85200
O135        O  0.24365587  0.74351871  0.17508724    -0.75800
O136        O  0.25734273  0.67553881  0.25929839    -0.75600
O137        O  0.32694341  0.75898325  0.24540434    -0.75200
O138        O  0.22218961  0.70288786  0.19959525    -0.75800
O139        O  0.30301958  0.77825422  0.20335704    -0.75400
O140        O  0.29807132  0.69985827  0.28054938    -0.76000
O141        O  0.24326962  0.78664036  0.31770747    -0.75400
O142        O  0.18757874  0.70913336  0.26910056    -0.76200
O143        O  0.29194523  0.76915062  0.31532732    -0.75600
O144        O  0.18359847  0.75860042  0.28480055    -0.76000
O145        O  0.21668207  0.81853128  0.25636759    -0.75900
O146        O  0.23440818  0.81455399  0.20764968    -0.75700
C147        C  0.23037239  0.71680276  0.17447851     0.76100
C148        C  0.28393820  0.67482409  0.27256010     0.76600
C149        C  0.32787120  0.77102849  0.21807585     0.75500
C150        C  0.27000454  0.78321184  0.32992832     0.75900
C151        C  0.17234409  0.73121857  0.28233711     0.77000
C152        C  0.22039669  0.82990437  0.22917290     0.76100
Zn153      Zn  0.27775107  0.27613153  0.27620835     1.49700
Zn154      Zn  0.27150785  0.21016429  0.24396149     1.49400
Zn155      Zn  0.21089962  0.24548112  0.27186861     1.49100
Zn156      Zn  0.24526227  0.27325707  0.21000401     1.49500
O157        O  0.25097880  0.25097691  0.25012011    -1.85200
O158        O  0.31871639  0.25604599  0.28360330    -0.75800
O159        O  0.24318456  0.17456079  0.25740028    -0.75600
O160        O  0.21001737  0.26825154  0.31429856    -0.75200
O161        O  0.31362410  0.20702964  0.26682538    -0.75800
O162        O  0.25916103  0.28407624  0.31784867    -0.75400
O163        O  0.20265834  0.19932019  0.27854052    -0.76000
O164        O  0.19932676  0.28008317  0.20254327    -0.75400
O165        O  0.27800813  0.20347564  0.19780863    -0.76200
O166        O  0.17529188  0.26014964  0.24420596    -0.75600
O167        O  0.25938687  0.24576366  0.17361459    -0.76000
O168        O  0.26762783  0.31599586  0.20932937    -0.75900
O169        O  0.28609857  0.31789822  0.25783846    -0.75700
C170        C  0.32946280  0.22849885  0.28027895     0.76100
C171        C  0.21654527  0.17405119  0.27062852     0.76600
C172        C  0.23209216  0.28135835  0.32951872     0.75500
C173        C  0.17442743  0.27289512  0.21719293     0.75900
C174        C  0.27143766  0.21839365  0.17276608     0.77000
C175        C  0.28192778  0.33049957  0.23123628     0.76100
C176        C  0.55475768  0.78420158  0.64827100     0.79200
N177        N  0.53267620  0.76138647  0.64637823    -0.79100
C178        C  0.50967208  0.76319099  0.62451820     0.81600
N179        N  0.50876759  0.78791391  0.60437345    -0.79100
C180        C  0.53073928  0.81088875  0.60615240     0.81700
N181        N  0.55346926  0.80876412  0.62817479    -0.80800
C182        C  0.46441102  0.69264338  0.60184033     0.79200
N183        N  0.48667699  0.71541706  0.60218103    -0.79100
C184        C  0.48531290  0.73905036  0.62353703     0.81600
N185        N  0.46173447  0.73981375  0.64474789    -0.79100
C186        C  0.43931630  0.71727040  0.64467003     0.81700
N187        N  0.44085877  0.69381314  0.62314124    -0.80800
Zn188      Zn  0.45880260  0.02292695  0.50714416     1.49700
Zn189      Zn  0.52446515  0.02765112  0.47523084     1.49400
Zn190      Zn  0.52056371  0.99533947  0.54146432     1.49100
Zn191      Zn  0.49351040  0.96134918  0.47910339     1.49500
O192        O  0.49896329  0.00144817  0.50114803    -1.85200
O193        O  0.45692136  0.06592755  0.48528925    -0.75800
O194        O  0.56514095  0.03602887  0.49446700    -0.75600
O195        O  0.49216281  0.00761825  0.57764072    -0.75200
O196        O  0.50524020  0.06881360  0.46702669    -0.75800
O197        O  0.45093776  0.02794599  0.55332849    -0.75400
O198        O  0.56245618  0.01873238  0.54339305    -0.76000
O199        O  0.50733936  0.92549421  0.50676007    -0.75400
O200        O  0.53362939  0.00859445  0.43416408    -0.76200
O201        O  0.52852299  0.94930092  0.54798460    -0.75600
O202        O  0.51687387  0.95954535  0.43709514    -0.76000
O203        O  0.44780090  0.95394966  0.47196850    -0.75900
O204        O  0.42344990  0.99536492  0.49226714    -0.75700
C205        C  0.47848605  0.08083663  0.47105122     0.76100
C206        C  0.57717188  0.03256670  0.52135857     0.76600
C207        C  0.46504372  0.01991298  0.57837815     0.75500
C208        C  0.52079858  0.92443029  0.53335378     0.75900
C209        C  0.53083644  0.98145193  0.42234450     0.77000
C210        C  0.42281884  0.96844124  0.47929175     0.76100
C211        C  0.28186319  0.35525925  0.55842317     0.79200
N212        N  0.25918594  0.35695410  0.53625907    -0.79100
C213        C  0.26121095  0.37812385  0.51256848     0.81600
N214        N  0.28621552  0.39772279  0.51089813    -0.79100
C215        C  0.30906417  0.39617551  0.53306596     0.81700
N216        N  0.30660195  0.37486833  0.55654666    -0.80800
C217        C  0.21704492  0.35368723  0.44238170     0.79200
N218        N  0.19180954  0.37272073  0.44431084    -0.79100
C219        C  0.18908589  0.39430680  0.46752772     0.81600
N220        N  0.21210988  0.39672365  0.48939458    -0.79100
C221        C  0.23759369  0.37772064  0.48771874     0.81700
N222        N  0.23992904  0.35623376  0.46427832    -0.80800
C223        C  0.55917316  0.28162197  0.35332664     0.79200
N224        N  0.53653305  0.25926999  0.35313061    -0.79100
C225        C  0.51172709  0.26172746  0.37296522     0.81600
N226        N  0.50957048  0.28657683  0.39295623    -0.79100
C227        C  0.53197932  0.30913568  0.39293227     0.81700
N228        N  0.55647444  0.30625986  0.37316238    -0.80800
C229        C  0.46589325  0.19212819  0.39655443     0.79200
N230        N  0.48838848  0.21458795  0.39564658    -0.79100
C231        C  0.48767081  0.23729819  0.37336438     0.81600
N232        N  0.46433553  0.23757361  0.35184474    -0.79100
C233        C  0.44170825  0.21519304  0.35246092     0.81700
N234        N  0.44269040  0.19263529  0.37491016    -0.80800
C235        C  0.64498946  0.55703198  0.78284222     0.79200
N236        N  0.64540061  0.53443147  0.76026989    -0.79100
C237        C  0.62449151  0.51056894  0.76103053     0.81600
N238        N  0.60309613  0.50925528  0.78437785    -0.79100
C239        C  0.60241621  0.53166565  0.80704329     0.81700
N240        N  0.62341639  0.55546624  0.80611782    -0.80800
C241        C  0.60272589  0.46427623  0.69111798     0.79200
N242        N  0.60334342  0.48719923  0.71330038    -0.79100
C243        C  0.62471834  0.48634873  0.73670927     0.81600
N244        N  0.64551171  0.46237439  0.73811813    -0.79100
C245        C  0.64510677  0.43924695  0.71612084     0.81700
N246        N  0.62364183  0.44039250  0.69273481    -0.80800
Zn247      Zn  0.52588961  0.52569558  0.52604904     1.49700
Zn248      Zn  0.46029662  0.52109669  0.49379840     1.49400
Zn249      Zn  0.52235917  0.49384488  0.45956258     1.49100
Zn250      Zn  0.49435650  0.45909435  0.52097510     1.49500
O251        O  0.50040345  0.49959839  0.49973178    -1.85200
O252        O  0.50672391  0.56725234  0.53436248    -0.75800
O253        O  0.45332744  0.52759461  0.44765734    -0.75600
O254        O  0.56459601  0.51642975  0.45837820    -0.75200
O255        O  0.45828273  0.56360196  0.51652555    -0.75800
O256        O  0.56720820  0.53382340  0.50730699    -0.75400
O257        O  0.49501409  0.50798819  0.42349309    -0.76000
O258        O  0.50778586  0.42347503  0.49267694    -0.75400
O259        O  0.42458793  0.49337446  0.50786971    -0.76200
O260        O  0.52915499  0.44778219  0.45187153    -0.75600
O261        O  0.44850375  0.45184319  0.52831210    -0.76000
O262        O  0.51755360  0.45671125  0.56294325    -0.75900
O263        O  0.53387390  0.50591752  0.56709958    -0.75700
C264        C  0.47971430  0.57885042  0.53061282     0.76100
C265        C  0.46804095  0.52055378  0.42264610     0.76600
C266        C  0.57931561  0.53023949  0.48041456     0.75500
C267        C  0.52109113  0.42273315  0.46598385     0.75900
C268        C  0.42364248  0.46651060  0.52093460     0.77000
C269        C  0.53095600  0.47853298  0.57835298     0.76100
C270        C  0.28441268  0.14630610  0.05845246     0.79200
N271        N  0.26232162  0.14595210  0.03549487    -0.79100
C272        C  0.26513035  0.12568193  0.01087469     0.81600
N273        N  0.28999720  0.10579404  0.00932726    -0.79100
C274        C  0.31227170  0.10635679  0.03202488     0.81700
N275        N  0.30909827  0.12656687  0.05628331    -0.80800
C276        C  0.19589460  0.10004170  0.96572619     0.79200
N277        N  0.21775730  0.10249964  0.98872639    -0.79100
C278        C  0.24086849  0.12423368  0.98656541     0.81600
N279        N  0.24202490  0.14373932  0.96132080    -0.79100
C280        C  0.22022676  0.14140245  0.93820470     0.81700
N281        N  0.19746569  0.11949362  0.94068973    -0.80800
C282        C  0.14830444  0.44456455  0.78267292     0.79200
N283        N  0.12728205  0.44596677  0.80638876    -0.79100
C284        C  0.10545084  0.46901962  0.80740179     0.81600
N285        N  0.10479796  0.49104057  0.78431532    -0.79100
C286        C  0.12564949  0.48981163  0.76038431     0.81700
N287        N  0.14735205  0.46659450  0.75961710    -0.80800
C288        C  0.10567772  0.53392425  0.68829902     0.79200
N289        N  0.10547975  0.51159968  0.71112118    -0.79100
C290        C  0.12535355  0.51396018  0.73594045     0.81600
N291        N  0.14525781  0.53870927  0.73799981    -0.79100
C292        C  0.14522834  0.56122902  0.71545413     0.81700
N293        N  0.12549774  0.55846732  0.69086867    -0.80800
Zn294      Zn  0.28817576  0.24592246  0.72802856     1.49700
Zn295      Zn  0.22652197  0.21055494  0.75405537     1.49400
Zn296      Zn  0.25326628  0.27209608  0.79008039     1.49100
Zn297      Zn  0.22205080  0.27732273  0.72376040     1.49500
O298        O  0.24787972  0.25107011  0.74938437    -1.85200
O299        O  0.29644135  0.20000569  0.72138839    -0.75800
O300        O  0.21987577  0.20201637  0.79997853    -0.75600
O301        O  0.29897922  0.27856349  0.79817448    -0.75200
O302        O  0.25474426  0.17512164  0.73978780    -0.75800
O303        O  0.32350015  0.26005904  0.75610322    -0.75400
O304        O  0.23923726  0.24338729  0.82512334    -0.76000
O305        O  0.21486258  0.31867801  0.74306384    -0.75400
O306        O  0.18436338  0.20925875  0.73101590    -0.76200
O307        O  0.23113107  0.31486285  0.79224358    -0.75600
O308        O  0.18064123  0.25884940  0.71576608    -0.76000
O309        O  0.24078262  0.28538057  0.68235550    -0.75900
O310        O  0.28969967  0.26875597  0.68576338    -0.75700
C311        C  0.28207914  0.17472526  0.72804272     0.76100
C312        C  0.22705758  0.21611988  0.82532424     0.76600
C313        C  0.32402291  0.27189817  0.78353194     0.75500
C314        C  0.21817220  0.33036007  0.77019564     0.75900
C315        C  0.16911627  0.23157828  0.71817766     0.77000
C316        C  0.26778749  0.28226984  0.67065665     0.76100
Zn317      Zn  0.46005727  0.97554339  0.99723264     1.49700
Zn318      Zn  0.52121521  0.00146393  0.96087449     1.49400
Zn319      Zn  0.49563509  0.03742080  0.02292272     1.49100
Zn320      Zn  0.52672380  0.97071184  0.02742578     1.49500
O321        O  0.50049632  0.99669562  0.00172726    -1.85200
O322        O  0.45115876  0.96899621  0.95135198    -0.75800
O323        O  0.52801422  0.04730039  0.95260251    -0.75600
O324        O  0.44995461  0.04623596  0.02964180    -0.75200
O325        O  0.49250256  0.98722463  0.92572757    -0.75800
O326        O  0.42499254  0.00412101  0.01186461    -0.75400
O327        O  0.51035245  0.07264262  0.99462420    -0.76000
O328        O  0.53382373  0.98921986  0.06932696    -0.75400
O329        O  0.56381488  0.97928606  0.95910864    -0.76200
O330        O  0.51804841  0.03866245  0.06540631    -0.75600
O331        O  0.56839907  0.96408944  0.00859681    -0.76000
O332        O  0.50854407  0.92873813  0.03454661    -0.75900
O333        O  0.45908480  0.93287538  0.01985131    -0.75700
C334        C  0.46514413  0.97551169  0.92580987     0.76100
C335        C  0.52197806  0.07272226  0.96711184     0.76600
C336        C  0.42473988  0.03173468  0.02339427     0.75500
C337        C  0.53087760  0.01649378  0.08087937     0.75900
C338        C  0.57970910  0.96703016  0.98127549     0.77000
C339        C  0.48137981  0.91724298  0.03217858     0.76100
C340        C  0.89801112  0.46429755  0.30615312     0.79200
N341        N  0.89800558  0.48625277  0.28298032    -0.79100
C342        C  0.87643901  0.48508501  0.25970836     0.81600
N343        N  0.85460759  0.46203258  0.25976695    -0.79100
C344        C  0.85436964  0.43993053  0.28278786     0.81700
N345        N  0.87613711  0.44127912  0.30584422    -0.80800
C346        C  0.89446102  0.53111148  0.18818680     0.79200
N347        N  0.89598545  0.50875774  0.21096615    -0.79100
C348        C  0.87563252  0.50952321  0.23548598     0.81600
N349        N  0.85399108  0.53280102  0.23733671    -0.79100
C350        C  0.85248529  0.55530428  0.21480407     0.81700
N351        N  0.87269240  0.55411415  0.19043951    -0.80800
C352        C  0.64329700  0.05848547  0.21886076     0.79200
N353        N  0.62171930  0.05612863  0.19571986    -0.79100
C354        C  0.60234108  0.03111465  0.19389379     0.81600
N355        N  0.60453384  0.00808879  0.21582281    -0.79100
C356        C  0.62599293  0.01003540  0.23917901     0.81700
N357        N  0.64535447  0.03528130  0.24073461    -0.80800
C358        C  0.60352751  0.96553589  0.30989340     0.79200
N359        N  0.60525952  0.98833371  0.28771429    -0.79100
C360        C  0.62619918  0.98616259  0.26394363     0.81600
N361        N  0.64564229  0.96094410  0.26227946    -0.79100
C362        C  0.64407616  0.93793301  0.28440769     0.81700
N363        N  0.62288779  0.94044231  0.30795850    -0.80800
C364        C  0.05995249  0.71852664  0.35485502     0.79200
N365        N  0.05787872  0.69460273  0.37571948    -0.79100
C366        C  0.03376994  0.69295480  0.39626373     0.81600
N367        N  0.01139650  0.71562869  0.39581795    -0.79100
C368        C  0.01329991  0.73980180  0.37520731     0.81700
N369        N  0.03751169  0.74115415  0.35471888    -0.80800
C370        C  0.94241392  0.78341714  0.35179858     0.79200
N371        N  0.96505040  0.76108362  0.35329290    -0.79100
C372        C  0.98872590  0.76374698  0.37428997     0.81600
N373        N  0.98963185  0.78871138  0.39416245    -0.79100
C374        C  0.96709158  0.81121181  0.39280892     0.81700
N375        N  0.94374615  0.80834395  0.37151610    -0.80800
C376        C  0.81263483  0.89395338  0.03158875     0.79200
N377        N  0.79036251  0.89437629  0.00887741    -0.79100
C378        C  0.76498367  0.87531993  0.01108909     0.81600
N379        N  0.76173589  0.85594118  0.03631715    -0.79100
C380        C  0.78386344  0.85562184  0.05925082     0.81700
N381        N  0.80901349  0.87461347  0.05648517    -0.80800
C382        C  0.69545167  0.90037040  0.96595026     0.79200
N383        N  0.71736446  0.89814704  0.98893273    -0.79100
C384        C  0.74072921  0.87660282  0.98674414     0.81600
N385        N  0.74201222  0.85697989  0.96155048    -0.79100
C386        C  0.72010672  0.85906937  0.93850840     0.81700
N387        N  0.69716787  0.88083973  0.94098307    -0.80800
Zn388      Zn  0.77604876  0.72144722  0.27584516     1.49700
Zn389      Zn  0.71015238  0.75302234  0.27087673     1.49400
Zn390      Zn  0.77182194  0.78835124  0.24476639     1.49100
Zn391      Zn  0.74539019  0.72674504  0.20895525     1.49500
O392        O  0.75054563  0.74779966  0.24968500    -1.85200
O393        O  0.75678235  0.71342619  0.31707734    -0.75800
O394        O  0.70234969  0.79887725  0.27872450    -0.75600
O395        O  0.81418688  0.78919570  0.26743560    -0.75200
O396        O  0.70769239  0.72922932  0.31255258    -0.75800
O397        O  0.81741633  0.74004627  0.28421727    -0.75400
O398        O  0.74388528  0.82382098  0.26000674    -0.76000
O399        O  0.75923381  0.75547481  0.17354066    -0.75400
O400        O  0.67508711  0.73938870  0.24244491    -0.76200
O401        O  0.77821303  0.79702275  0.19866761    -0.75600
O402        O  0.69961322  0.71954146  0.20097959    -0.76000
O403        O  0.76831051  0.68431390  0.20735224    -0.75900
O404        O  0.78364643  0.67987111  0.25682747    -0.75700
C405        C  0.72944094  0.71599525  0.32810033     0.76100
C406        C  0.71681968  0.82418890  0.27241945     0.76600
C407        C  0.82918209  0.76714463  0.28104080     0.75500
C408        C  0.77128763  0.78281532  0.17328818     0.75900
C409        C  0.67455509  0.72668106  0.21542343     0.77000
C410        C  0.78101636  0.66861054  0.22943754     0.76100
C411        C  0.39740531  0.53420309  0.30812208     0.79200
N412        N  0.39726163  0.51190940  0.28524754    -0.79100
C413        C  0.37730953  0.51459627  0.26052325     0.81600
N414        N  0.35745567  0.53949918  0.25877951    -0.79100
C415        C  0.35775195  0.56193956  0.28145027     0.81700
N416        N  0.37769269  0.55891716  0.30581806    -0.80800
C417        C  0.39348014  0.46841252  0.18869824     0.79200
N418        N  0.37158423  0.44560401  0.19130081    -0.79100
C419        C  0.35201030  0.44451424  0.21621603     0.81600
N420        N  0.35431205  0.46683328  0.23889327    -0.79100
C421        C  0.37596463  0.48997401  0.23653821     0.81700
N422        N  0.39559527  0.49070053  0.21148681    -0.80800
Zn423      Zn  0.52626214  0.47009567  0.97247571     1.49700
Zn424      Zn  0.45986899  0.47483189  0.00417499     1.49400
Zn425      Zn  0.52163893  0.50192851  0.03855998     1.49100
Zn426      Zn  0.49403980  0.53653139  0.97679365     1.49500
O427        O  0.50009223  0.49617318  0.99832316    -1.85200
O428        O  0.50751215  0.42835432  0.96492159    -0.75800
O429        O  0.45233247  0.46849935  0.05027275    -0.75600
O430        O  0.56387400  0.47912353  0.04043453    -0.75200
O431        O  0.45876256  0.43210536  0.98203762    -0.75800
O432        O  0.56788064  0.46255691  0.99131955    -0.62600
O433        O  0.49372245  0.48850682  0.07447289    -0.76000
O434        O  0.50804957  0.57242095  0.00451525    -0.75400
O435        O  0.42391329  0.50261011  0.98990118    -0.76200
O436        O  0.52868586  0.54795375  0.04563725    -0.75600
O437        O  0.44824404  0.54409358  0.97000583    -0.76000
O438        O  0.51653385  0.53822086  0.93447257    -0.75900
O439        O  0.53381881  0.48924523  0.93100752    -0.75700
C440        C  0.48054904  0.41669315  0.96858268     0.76100
C441        C  0.46676224  0.47597429  0.07528966     0.76600
C442        C  0.57933501  0.46584564  0.01854136     0.75500
C443        C  0.52121274  0.57306770  0.03128269     0.75900
C444        C  0.42324172  0.52967355  0.97718582     0.77000
C445        C  0.53027683  0.51638720  0.91932525     0.76100
Zn446      Zn  0.03816912  0.02277352  0.49548584     1.49700
Zn447      Zn  0.00353134  0.96036960  0.52220082     1.49400
Zn448      Zn  0.97261044  0.02681796  0.52808461     1.49100
Zn449      Zn  0.97647862  0.99571494  0.46084749     1.49500
O450        O  0.99807374  0.00107350  0.50125278    -1.85200
O451        O  0.07381193  0.99456455  0.50917520    -0.75800
O452        O  0.98142876  0.95841694  0.56502443    -0.75600
O453        O  0.99123442  0.06850236  0.53577855    -0.75200
O454        O  0.04939750  0.95259805  0.52803566    -0.75800
O455        O  0.03986221  0.06542821  0.51833411    -0.75400
O456        O  0.96541608  0.00769148  0.56976287    -0.76000
O457        O  0.93416768  0.01826380  0.46030233    -0.75400
O458        O  0.98907642  0.92481965  0.49403311    -0.76200
O459        O  0.93110013  0.03439424  0.50969050    -0.75600
O460        O  0.96947700  0.94972838  0.45271698    -0.76000
O461        O  0.00415495  0.00984598  0.42474150    -0.75900
O462        O  0.04554838  0.02934294  0.44933267    -0.75700
C463        C  0.07441613  0.96714325  0.52110279     0.76100
C464        C  0.96848654  0.98027353  0.58089553     0.76600
C465        C  0.01805635  0.08046823  0.53219161     0.75500
C466        C  0.91916311  0.03131132  0.48266808     0.75900
C467        C  0.97648174  0.92441885  0.46696621     0.77000
C468        C  0.03119899  0.02224594  0.42414439     0.76100
C469        C  0.28311872  0.85442434  0.44360476     0.79200
N470        N  0.30786049  0.87395921  0.44580650    -0.79100
C471        C  0.30981117  0.89565624  0.46899178     0.81600
N472        N  0.28644100  0.89767693  0.49056904    -0.79100
C473        C  0.26142079  0.87813293  0.48857934     0.81700
N474        N  0.25990286  0.85657005  0.46517213    -0.80800
C475        C  0.18839417  0.89513074  0.53195522     0.79200
N476        N  0.19059256  0.87370984  0.55537889    -0.79100
C477        C  0.21569847  0.85457056  0.55790701     0.81600
N478        N  0.23897162  0.85684514  0.53643178    -0.79100
C479        C  0.23724330  0.87817270  0.51286403     0.81700
N480        N  0.21188492  0.89730850  0.51054042    -0.80800
C481        C  0.46400941  0.30225341  0.89926084     0.79200
N482        N  0.43921158  0.30125299  0.87962797    -0.79100
C483        C  0.43646233  0.27843961  0.85764639     0.81600
N484        N  0.45903385  0.25605844  0.85541334    -0.79100
C485        C  0.48392876  0.25658434  0.87517720     0.81700
N486        N  0.48644847  0.27976206  0.89695015    -0.80800
C487        C  0.52944279  0.18449516  0.89120728     0.79200
N488        N  0.50723656  0.20726194  0.89306035    -0.79100
C489        C  0.50796114  0.23214980  0.87313336     0.81600
N490        N  0.53126896  0.23455748  0.85165085    -0.79100
C491        C  0.55360217  0.21191201  0.84970533     0.81700
N492        N  0.55234965  0.18705626  0.86945020    -0.80800
C493        C  0.03053017  0.19364711  0.60472355     0.79200
N494        N  0.00784913  0.21604155  0.60540629    -0.79100
C495        C  0.00905632  0.23971648  0.62671929     0.81600
N496        N  0.03305303  0.24102937  0.64744238    -0.79100
C497        C  0.05575910  0.21867910  0.64711369     0.81700
N498        N  0.05430679  0.19515746  0.62568301    -0.80800
C499        C  0.96470574  0.31173889  0.60736199     0.79200
N500        N  0.98696273  0.28895596  0.60710387    -0.79100
C501        C  0.98484306  0.26410138  0.62700971     0.81600
N502        N  0.96025459  0.26191352  0.64710673    -0.79100
C503        C  0.93771886  0.28445281  0.64721080     0.81700
N504        N  0.94031625  0.30913908  0.62738144    -0.80800
C505        C  0.69453278  0.39787475  0.03410879     0.79200
N506        N  0.69603596  0.37696156  0.05806938    -0.79100
C507        C  0.71987767  0.35608536  0.06011227     0.81600
N508        N  0.74255012  0.35627298  0.03779715    -0.79100
C509        C  0.74145536  0.37712371  0.01376773     0.81700
N510        N  0.71732476  0.39775790  0.01183526    -0.80800
C511        C  0.81280422  0.39376928  0.96744346     0.79200
N512        N  0.79009662  0.39590612  0.98971269    -0.79100
C513        C  0.76534382  0.37594772  0.98910781     0.81600
N514        N  0.76327502  0.35392783  0.96615181    -0.79100
C515        C  0.78575442  0.35168715  0.94376321     0.81700
N516        N  0.81034643  0.37160842  0.94471860    -0.80800
Zn517      Zn  0.72232180  0.27429698  0.77922590     1.49700
Zn518      Zn  0.75360267  0.26929352  0.71263589     1.49400
Zn519      Zn  0.78838561  0.24225686  0.77383979     1.49100
Zn520      Zn  0.72651973  0.20767944  0.74739627     1.49500
O521        O  0.74801009  0.24803561  0.75302226    -1.85200
O522        O  0.71440467  0.31582562  0.75986343    -0.75800
O523        O  0.79917107  0.27726625  0.70485155    -0.75600
O524        O  0.79035452  0.26478803  0.81627959    -0.75200
O525        O  0.72989232  0.31072787  0.71045276    -0.75800
O526        O  0.74170339  0.28211860  0.82064748    -0.75400
O527        O  0.82379935  0.25677186  0.74585458    -0.76000
O528        O  0.75394355  0.17159419  0.76158229    -0.75400
O529        O  0.74022020  0.24118179  0.67714784    -0.76200
O530        O  0.79581856  0.19613031  0.78008393    -0.75600
O531        O  0.71996633  0.19986717  0.70149682    -0.76000
O532        O  0.68408637  0.20657442  0.76938411    -0.75900
O533        O  0.68076801  0.25544923  0.78701037    -0.75700
C534        C  0.71682845  0.32650921  0.73220930     0.76100
C535        C  0.82428261  0.27004941  0.71909816     0.76600
C536        C  0.76889702  0.27856561  0.83184336     0.75500
C537        C  0.78117801  0.17096390  0.77351508     0.75900
C538        C  0.72746079  0.21424511  0.67645058     0.77000
C539        C  0.66892431  0.22847002  0.78301609     0.76100
C540        C  0.03092200  0.81221770  0.89213042     0.79200
N541        N  0.00832538  0.78986225  0.89237691    -0.79100
C542        C  0.00983264  0.76518526  0.87210321     0.81600
N543        N  0.03432143  0.76263767  0.85181490    -0.79100
C544        C  0.05709363  0.78491376  0.85169370     0.81700
N545        N  0.05493339  0.80936720  0.87180568    -0.80800
C546        C  0.93728979  0.72035017  0.85689562     0.79200
N547        N  0.96027421  0.74225263  0.85439522    -0.79100
C548        C  0.98577351  0.74069449  0.87337127     0.81600
N549        N  0.98829661  0.71711563  0.89469961    -0.79100
C550        C  0.96544663  0.69514819  0.89728474     0.81700
N551        N  0.94014024  0.69711137  0.87840866    -0.80800
C552        C  0.85413587  0.05739657  0.78505861     0.79200
N553        N  0.85431124  0.03439588  0.76287077    -0.79100
C554        C  0.87471969  0.00992650  0.76530872     0.81600
N555        N  0.89491450  0.00853499  0.78995331    -0.79100
C556        C  0.89448999  0.03129858  0.81233772     0.81700
N557        N  0.87415608  0.05539793  0.80948798    -0.80800
C558        C  0.85736200  0.93753370  0.72024123     0.79200
N559        N  0.85591953  0.96053229  0.74239965    -0.79100
C560        C  0.87565688  0.98548304  0.74099276     0.81600
N561        N  0.89675950  0.98749270  0.71727172    -0.79100
C562        C  0.89836495  0.96464962  0.69500929     0.81700
N563        N  0.87865190  0.93988206  0.69681438    -0.80800
Zn564      Zn  0.72140180  0.72327503  0.72386868     1.49700
Zn565      Zn  0.75259357  0.72799144  0.79041931     1.49400
Zn566      Zn  0.78781828  0.75423088  0.72868961     1.49100
Zn567      Zn  0.72611766  0.78991521  0.75465246     1.49500
O568        O  0.74731163  0.74923552  0.74979670    -1.85200
O569        O  0.71326149  0.68205567  0.74320610    -0.75800
O570        O  0.79838671  0.72124912  0.79873187    -0.75600
O571        O  0.78972517  0.73107509  0.68664963    -0.75200
O572        O  0.72969248  0.68568198  0.79237734    -0.75800
O573        O  0.74075908  0.71482795  0.68275668    -0.75400
O574        O  0.82305894  0.74022968  0.75705083    -0.76000
O575        O  0.75472360  0.82522407  0.74066837    -0.75400
O576        O  0.73860386  0.75655780  0.82563493    -0.76200
O577        O  0.79610363  0.80009914  0.72157526    -0.75600
O578        O  0.71953636  0.79813758  0.80059579    -0.76000
O579        O  0.68366249  0.79161142  0.73187576    -0.75900
O580        O  0.68015887  0.74236506  0.71552192    -0.75700
C581        C  0.71628698  0.67046450  0.77040798     0.76100
C582        C  0.82352161  0.72818358  0.78437913     0.76600
C583        C  0.76792323  0.71767233  0.67134466     0.75500
C584        C  0.78191345  0.82544608  0.72854038     0.75900
C585        C  0.72652933  0.78389902  0.82590760     0.77000
C586        C  0.66845393  0.76954375  0.71857890     0.76100
Zn587      Zn  0.96128291  0.52285312  0.00359303     1.49700
Zn588      Zn  0.99642807  0.46100657  0.97707561     1.49400
Zn589      Zn  0.02741691  0.52788218  0.97249326     1.49100
Zn590      Zn  0.02328895  0.49639703  0.03879078     1.49500
O591        O  0.00171711  0.50165622  0.99840421    -1.85200
O592        O  0.92614550  0.49445588  0.98904084    -0.75800
O593        O  0.02013191  0.45917643  0.93530028    -0.75600
O594        O  0.00836049  0.56924898  0.96439491    -0.75200
O595        O  0.95077788  0.45305791  0.96909678    -0.75800
O596        O  0.95949876  0.56550043  0.98092336    -0.75400
O597        O  0.03533061  0.50876530  0.93124141    -0.76000
O598        O  0.06572734  0.51912635  0.04023115    -0.75400
O599        O  0.00949195  0.42545452  0.00579879    -0.76200
O600        O  0.06874450  0.53611714  0.99122957    -0.75600
O601        O  0.02959011  0.45025866  0.04699313    -0.76000
O602        O  0.99523676  0.51075088  0.07431218    -0.75900
O603        O  0.95335618  0.52933062  0.04969243    -0.75700
C604        C  0.92566752  0.46742200  0.97621884     0.76100
C605        C  0.03298712  0.48136166  0.91992835     0.76600
C606        C  0.98130094  0.58085851  0.96751341     0.75500
C607        C  0.08065285  0.53282157  0.01823203     0.75900
C608        C  0.02192645  0.42501724  0.03292848     0.77000
C609        C  0.96795355  0.52267470  0.07486846     0.76100
C610        C  0.35499493  0.06086836  0.72007433     0.79200
N611        N  0.37438776  0.05709224  0.69536220    -0.79100
C612        C  0.39335938  0.03179708  0.69285181     0.81600
N613        N  0.39313623  0.00978295  0.71599485    -0.79100
C614        C  0.37375120  0.01329526  0.74112248     0.81700
N615        N  0.35449733  0.03867954  0.74294357    -0.80800
C616        C  0.38969297  0.96798523  0.81358724     0.79200
N617        N  0.39217971  0.98976225  0.79034995    -0.79100
C618        C  0.37226558  0.98907435  0.76550955     0.81600
N619        N  0.34997145  0.96652459  0.76386321    -0.79100
C620        C  0.34733896  0.94467133  0.78691299     0.81700
N621        N  0.36720472  0.94569439  0.81160216    -0.80800
C622        C  0.22036685  0.64338059  0.06086979     0.79200
N623        N  0.19664402  0.62251205  0.05813583    -0.79100
C624        C  0.19448944  0.60313944  0.03303044     0.81600
N625        N  0.21665103  0.60464049  0.01024898    -0.79100
C626        C  0.24069226  0.62526193  0.01268850     0.81700
N627        N  0.24248990  0.64467295  0.03797584    -0.80800
C628        C  0.31144428  0.60503231  0.96709507     0.79200
N629        N  0.28929783  0.60527606  0.98994837    -0.79100
C630        C  0.26499275  0.62584629  0.98841598     0.81600
N631        N  0.26263590  0.64599687  0.96373119    -0.79100
C632        C  0.28458161  0.64565546  0.94065301     0.81700
N633        N  0.30871878  0.62520890  0.94272514    -0.80800
Zn634      Zn  0.24254009  0.77261916  0.79038333     1.49700
Zn635      Zn  0.27575135  0.77789497  0.72441723     1.49400
Zn636      Zn  0.27095459  0.71140899  0.75553167     1.49100
Zn637      Zn  0.20967754  0.74586934  0.72770965     1.49500
O638        O  0.24942198  0.75167686  0.74988481    -1.85200
O639        O  0.26375300  0.81567390  0.79230335    -0.75800
O640        O  0.31744188  0.75898571  0.71677740    -0.75600
O641        O  0.27821773  0.70394609  0.80154082    -0.75200
O642        O  0.28229023  0.81952344  0.74386797    -0.75800
O643        O  0.25712709  0.74477880  0.82621840    -0.75400
O644        O  0.31257096  0.70942670  0.73192383    -0.76000
O645        O  0.20261891  0.69998542  0.72032751    -0.75400
O646        O  0.25729593  0.78586898  0.68259133    -0.76200
O647        O  0.24329903  0.67567601  0.74169070    -0.75600
O648        O  0.20850238  0.76891495  0.68575221    -0.76000
O649        O  0.17324713  0.75938729  0.75467328    -0.75900
O650        O  0.19639869  0.77860101  0.79716105    -0.75700
C651        C  0.27756368  0.83120501  0.77082752     0.76100
C652        C  0.32822881  0.73132293  0.71899742     0.76600
C653        C  0.27062056  0.71809168  0.82676121     0.75500
C654        C  0.21684209  0.67493703  0.72815863     0.75900
C655        C  0.23034167  0.78259412  0.67078390     0.77000
C656        C  0.17182664  0.77167155  0.78185220     0.76100
C657        C  0.26218309  0.69224092  0.91165763    -0.14400
C658        C  0.28206766  0.66600092  0.91250508     0.07700
C659        C  0.29962983  0.65864578  0.88561760    -0.14400
C660        C  0.29665408  0.67629016  0.85828298    -0.14400
C661        C  0.27631322  0.70207248  0.85707891     0.07700
C662        C  0.25950486  0.71026616  0.88424277    -0.14400
H663        H  0.24851924  0.69864526  0.93202735     0.11700
H664        H  0.31518593  0.63861361  0.88531182     0.11700
H665        H  0.30992370  0.66931858  0.83782336     0.11700
H666        H  0.24346287  0.72990604  0.88396690     0.11700
C667        C  0.31858306  0.89892264  0.81013036    -0.14400
C668        C  0.32467249  0.91858241  0.78430362     0.07700
C669        C  0.31106777  0.91135135  0.75528241    -0.14400
C670        C  0.29401523  0.88374687  0.75152835    -0.14400
C671        C  0.28979848  0.86301146  0.77679587     0.07700
C672        C  0.30108348  0.87146213  0.80644808    -0.14400
H673        H  0.32839936  0.90408179  0.83293545     0.11700
H674        H  0.31505015  0.92606149  0.73499603     0.11700
H675        H  0.28522802  0.87792577  0.72844598     0.11700
H676        H  0.29813453  0.85589844  0.82627760     0.11700
C677        C  0.13162713  0.55197527  0.99759254    -0.14400
C678        C  0.11196304  0.54648865  0.02343895     0.07700
C679        C  0.12113644  0.55734802  0.05306538    -0.14400
C680        C  0.14849543  0.57499554  0.05636986    -0.14400
C681        C  0.16742601  0.58167329  0.03019318     0.07700
C682        C  0.15911645  0.56917059  0.00095665    -0.14400
H683        H  0.12525167  0.54373545  0.97444548     0.11700
H684        H  0.10640922  0.55358711  0.07333247     0.11700
H685        H  0.15441588  0.58407158  0.07931713     0.11700
H686        H  0.17313639  0.57378982  0.98036448     0.11700
C687        C  0.84137480  0.88449197  0.70070353    -0.14400
C688        C  0.83638579  0.90981350  0.72132296     0.07700
C689        C  0.81161412  0.90797304  0.74285089    -0.14400
C690        C  0.79272929  0.88116685  0.74409065    -0.14400
C691        C  0.79853283  0.85553030  0.72414302     0.07700
C692        C  0.82284994  0.85764395  0.70226050    -0.14400
H693        H  0.86013369  0.88501161  0.68372570     0.11700
H694        H  0.80705066  0.92704377  0.75899354     0.11700
H695        H  0.77440482  0.87997842  0.76151709     0.11700
H696        H  0.82792642  0.83823605  0.68666118     0.11700
C697        C  0.99769615  0.66003825  0.93142271    -0.14400
C698        C  0.96849995  0.66823178  0.91909465     0.07700
C699        C  0.94261611  0.64904943  0.92593453    -0.14400
C700        C  0.94620377  0.62146190  0.94341410    -0.14400
C701        C  0.97580648  0.61236275  0.95401032     0.07700
C702        C  0.00133216  0.63234413  0.94849659    -0.14400
H703        H  0.01805874  0.67425332  0.92668653     0.11700
H704        H  0.91969772  0.65486938  0.91699584     0.11700
H705        H  0.92617901  0.60649863  0.94722434     0.11700
H706        H  0.02445058  0.62603945  0.95657051     0.11700
C707        C  0.88208977  0.70503371  0.84641466    -0.14400
C708        C  0.90890173  0.72153174  0.83707110     0.07700
C709        C  0.90804983  0.73864495  0.80894406    -0.14400
C710        C  0.88073632  0.73960636  0.79087297    -0.14400
C711        C  0.85366401  0.72383980  0.80084943     0.07700
C712        C  0.85482845  0.70630459  0.82865442    -0.14400
H713        H  0.88186819  0.69161284  0.86795659     0.11700
H714        H  0.92840537  0.75135096  0.80098574     0.11700
H715        H  0.88051352  0.75352690  0.76965273     0.11700
H716        H  0.83442264  0.69396901  0.83707091     0.11700
C717        C  0.11078054  0.80239014  0.83751044    -0.14400
C718        C  0.08523208  0.78253250  0.83151737     0.07700
C719        C  0.08761305  0.76053040  0.80707940    -0.14400
C720        C  0.11531022  0.75795352  0.78968393    -0.14400
C721        C  0.14117235  0.77696966  0.79683307     0.07700
C722        C  0.13838859  0.79947271  0.82059179    -0.14400
H723        H  0.10992257  0.81975942  0.85602024     0.11700
H724        H  0.06832881  0.74506892  0.80173258     0.11700
H725        H  0.11693510  0.74025455  0.77153327     0.11700
H726        H  0.15784041  0.81453001  0.82652123     0.11700
C727        C  0.82325216  0.13940223  0.79836190    -0.14400
C728        C  0.79724021  0.14061756  0.77853059     0.07700
C729        C  0.78899883  0.11359181  0.76142989    -0.14400
C730        C  0.80725087  0.08625474  0.76335407    -0.14400
C731        C  0.83370065  0.08542991  0.78278659     0.07700
C732        C  0.84109889  0.11221140  0.80058062    -0.14400
H733        H  0.83024157  0.15977022  0.81181580     0.11700
H734        H  0.76916487  0.11395712  0.74573381     0.11700
H735        H  0.80083047  0.06594219  0.74955499     0.11700
H736        H  0.86129653  0.11255503  0.81580034     0.11700
C737        C  0.84212546  0.44073494  0.98798718    -0.14400
C738        C  0.84062420  0.41450912  0.96805395     0.07700
C739        C  0.86650419  0.40761563  0.94892765    -0.14400
C740        C  0.89363985  0.42559837  0.95066716    -0.14400
C741        C  0.89549719  0.45124492  0.97123077     0.07700
C742        C  0.86921769  0.45904855  0.98939493    -0.14400
H743        H  0.82256972  0.44683188  0.00285341     0.11700
H744        H  0.86622512  0.38768604  0.93318035     0.11700
H745        H  0.91346124  0.41898340  0.93636909     0.11700
H746        H  0.87004214  0.47852921  0.00567741     0.11700
C747        C  0.80811642  0.32373169  0.89695661    -0.14400
C748        C  0.78294136  0.32896283  0.91756551     0.07700
C749        C  0.75445255  0.31395585  0.91155792    -0.14400
C750        C  0.75056761  0.29599649  0.88446124    -0.14400
C751        C  0.77518758  0.29224696  0.86300968     0.07700
C752        C  0.80432635  0.30534184  0.87002380    -0.14400
H753        H  0.83050004  0.33470676  0.90106149     0.11700
H754        H  0.73466699  0.31728468  0.92697826     0.11700
H755        H  0.72787515  0.28595036  0.87967118     0.11700
H756        H  0.82360604  0.30294022  0.85379613     0.11700
C757        C  0.90859961  0.26141099  0.69316686    -0.14400
C758        C  0.90967949  0.28199125  0.66746234     0.07700
C759        C  0.88313310  0.30013523  0.66051463    -0.14400
C760        C  0.85584218  0.29696861  0.67799380    -0.14400
C761        C  0.85443572  0.27591682  0.70321608     0.07700
C762        C  0.88128497  0.25858635  0.71104730    -0.14400
H763        H  0.92870906  0.24728714  0.69924501     0.11700
H764        H  0.88305628  0.31624441  0.64090019     0.11700
H765        H  0.83559412  0.31065198  0.67136263     0.11700
H766        H  0.88081934  0.24199430  0.73025014     0.11700
C767        C  0.60009343  0.18923899  0.82202419    -0.14400
C768        C  0.58059492  0.21514266  0.82827157     0.07700
C769        C  0.58883718  0.24460856  0.81625238    -0.14400
C770        C  0.61698908  0.24851541  0.80027285    -0.14400
C771        C  0.63726255  0.22296534  0.79552254     0.07700
C772        C  0.62806938  0.19307812  0.80558617    -0.14400
H773        H  0.59424034  0.16613365  0.83074825     0.11700
H774        H  0.57435080  0.26498592  0.82056948     0.11700
H775        H  0.62338179  0.27181063  0.79246583     0.11700
H776        H  0.64324130  0.17302020  0.80224414     0.11700
C777        C  0.19249363  0.82763629  0.60479206    -0.14400
C778        C  0.21803364  0.83242865  0.58457103     0.07700
C779        C  0.24639218  0.81737764  0.59124707    -0.14400
C780        C  0.24977024  0.79973707  0.61857384    -0.14400
C781        C  0.22475542  0.79634646  0.63957317     0.07700
C782        C  0.19578330  0.80956211  0.63196737    -0.14400
H783        H  0.17020216  0.83865995  0.60016975     0.11700
H784        H  0.26643426  0.82033691  0.57610738     0.11700
H785        H  0.27233162  0.78956437  0.62383609     0.11700
H786        H  0.17621461  0.80741577  0.64786604     0.11700
C787        C  0.00047156  0.15959470  0.56771075    -0.14400
C788        C  0.02879703  0.16702093  0.58236173     0.07700
C789        C  0.05487585  0.14758647  0.57692027    -0.14400
C790        C  0.05218294  0.12040437  0.55858474    -0.14400
C791        C  0.02325224  0.11196222  0.54581752     0.07700
C792        C  0.99768879  0.13228880  0.54986081    -0.14400
H793        H  0.97999503  0.17406414  0.57123938     0.11700
H794        H  0.07715783  0.15287502  0.58760116     0.11700
H795        H  0.07219834  0.10511156  0.55594342     0.11700
H796        H  0.97510864  0.12644560  0.54011423     0.11700
C797        C  0.10583730  0.92385951  0.54452864    -0.14400
C798        C  0.10457952  0.95080599  0.52570891     0.07700
C799        C  0.13155972  0.96003751  0.50935005    -0.14400
C800        C  0.15897279  0.94210222  0.51120812    -0.14400
C801        C  0.15996555  0.91488932  0.52978931     0.07700
C802        C  0.13314947  0.90626227  0.54666832    -0.14400
H803        H  0.08548342  0.91603552  0.55734101     0.11700
H804        H  0.13119782  0.98054544  0.49438673     0.11700
H805        H  0.17928190  0.94944446  0.49805856     0.11700
H806        H  0.13296318  0.88541572  0.56115853     0.11700
C807        C  0.95238557  0.99921704  0.63383898    -0.14400
C808        C  0.95528472  0.97430789  0.61237285     0.07700
C809        C  0.94194521  0.94524744  0.61981061    -0.14400
C810        C  0.92433495  0.94179055  0.64725429    -0.14400
C811        C  0.92009486  0.96721940  0.66799916     0.07700
C812        C  0.93519505  0.99566022  0.66143835    -0.14400
H813        H  0.96258869  0.02187935  0.62874292     0.11700
H814        H  0.94363231  0.92575684  0.60359986     0.11700
H815        H  0.91323805  0.91943339  0.65170510     0.11700
H816        H  0.93261161  0.01564785  0.67690063     0.11700
C817        C  0.36690161  0.53921881  0.99083383    -0.14400
C818        C  0.39308894  0.54592390  0.97212088     0.07700
C819        C  0.39139133  0.57089509  0.95078884    -0.14400
C820        C  0.36461657  0.58938064  0.94882303    -0.14400
C821        C  0.33885777  0.58371017  0.96844021     0.07700
C822        C  0.34009321  0.55810815  0.98918577    -0.14400
H823        H  0.36763791  0.52024444  0.00768509     0.11700
H824        H  0.41112957  0.57664490  0.93604107     0.11700
H825        H  0.36455377  0.60878826  0.93245941     0.11700
H826        H  0.32056181  0.55294211  0.00440212     0.11700
C827        C  0.63165875  0.44935196  0.99895860    -0.14400
C828        C  0.61083516  0.45282635  0.02421093     0.07700
C829        C  0.61921590  0.44074756  0.05359962    -0.14400
C830        C  0.64700277  0.42376742  0.05711721    -0.14400
C831        C  0.66714543  0.41902490  0.03142878     0.07700
C832        C  0.65960424  0.43288167  0.00257968    -0.14400
H833        H  0.62587293  0.45862074  0.97604813     0.11700
H834        H  0.60356388  0.44298873  0.07339864     0.11700
H835        H  0.65228611  0.41361241  0.07976260     0.11700
H836        H  0.67457277  0.42978821  0.98236828     0.11700
C837        C  0.44153834  0.34873257  0.92748989    -0.14400
C838        C  0.46718055  0.32896315  0.92127471     0.07700
C839        C  0.49630663  0.33659744  0.93411203    -0.14400
C840        C  0.50017464  0.36446409  0.95089923    -0.14400
C841        C  0.47491844  0.38504995  0.95562092     0.07700
C842        C  0.44533436  0.37641885  0.94469791    -0.14400
H843        H  0.41868410  0.34335243  0.91815580     0.11700
H844        H  0.51647174  0.32187931  0.92986701     0.11700
H845        H  0.52324275  0.37045106  0.95930673     0.11700
H846        H  0.42552692  0.39187422  0.94793303     0.11700
C847        C  0.40767157  0.44920987  0.13513497    -0.14400
C848        C  0.41414184  0.46892282  0.16077938     0.07700
C849        C  0.43991532  0.48919787  0.15897643    -0.14400
C850        C  0.45818613  0.49034067  0.13174407    -0.14400
C851        C  0.45076160  0.47152898  0.10569785     0.07700
C852        C  0.42560698  0.45065238  0.10790666    -0.14400
H853        H  0.38812687  0.43317164  0.13566302     0.11700
H854        H  0.44567972  0.50451033  0.17837810     0.11700
H855        H  0.47730696  0.50686417  0.13060213     0.11700
H856        H  0.41933861  0.43584154  0.08826281     0.11700
C857        C  0.70273644  0.84614071  0.88415469    -0.14400
C858        C  0.72074233  0.83831487  0.91059106     0.07700
C859        C  0.73886102  0.81082773  0.90978627    -0.14400
C860        C  0.73947376  0.79203291  0.88279454    -0.14400
C861        C  0.72230882  0.80064535  0.85601992     0.07700
C862        C  0.70363499  0.82766134  0.85721315    -0.14400
H863        H  0.68842150  0.86708742  0.88390121     0.11700
H864        H  0.75273122  0.80400371  0.92986256     0.11700
H865        H  0.75429810  0.77144712  0.88247445     0.11700
H866        H  0.69017626  0.83496015  0.83700857     0.11700
C867        C  0.79935181  0.84250574  0.11419090    -0.14400
C868        C  0.78092237  0.83575262  0.08772979     0.07700
C869        C  0.76030338  0.81018798  0.08911129    -0.14400
C870        C  0.75808859  0.79199569  0.11647017    -0.14400
C871        C  0.77605368  0.79938233  0.14309701     0.07700
C872        C  0.79679263  0.82473576  0.14151021    -0.14400
H873        H  0.81546945  0.86203489  0.11410370     0.11700
H874        H  0.74590618  0.80428605  0.06912462     0.11700
H875        H  0.74161887  0.77277742  0.11712731     0.11700
H876        H  0.81087823  0.83110040  0.16159311     0.11700
C877        C  0.98733625  0.84016761  0.44017164    -0.14400
C878        C  0.96798979  0.83914836  0.41358687     0.07700
C879        C  0.94961779  0.86555475  0.40645065    -0.14400
C880        C  0.95148971  0.89274483  0.42458406    -0.14400
C881        C  0.97145239  0.89415517  0.45061455     0.07700
C882        C  0.98887904  0.86734628  0.45864906    -0.14400
H883        H  0.00156713  0.82013704  0.44646383     0.11700
H884        H  0.93438337  0.86562819  0.38621581     0.11700
H885        H  0.93775798  0.91296759  0.41777870     0.11700
H886        H  0.00465223  0.86779709  0.47845890     0.11700
C887        C  0.89658208  0.80611483  0.32296603    -0.14400
C888        C  0.91561964  0.78012204  0.33010939     0.07700
C889        C  0.90756915  0.75061694  0.31800849    -0.14400
C890        C  0.88015707  0.74684186  0.30075897    -0.14400
C891        C  0.86038460  0.77255038  0.29481199     0.07700
C892        C  0.86934115  0.80240473  0.30525480    -0.14400
H893        H  0.90232441  0.82923653  0.33174481     0.11700
H894        H  0.92169378  0.73015251  0.32303968     0.11700
H895        H  0.87393106  0.72352463  0.29285188     0.11700
H896        H  0.85451997  0.82257050  0.30112298     0.11700
C897        C  0.69107870  0.90898535  0.26363705    -0.14400
C898        C  0.66437945  0.90974381  0.28275443     0.07700
C899        C  0.65671774  0.88287795  0.30024420    -0.14400
C900        C  0.67452410  0.85556602  0.29778275    -0.14400
C901        C  0.70072936  0.85446194  0.27808586     0.07700
C902        C  0.70922365  0.88166237  0.26150446    -0.14400
H903        H  0.69775095  0.92936347  0.25007996     0.11700
H904        H  0.63635526  0.88257945  0.31525207     0.11700
H905        H  0.66734626  0.83503522  0.31085535     0.11700
H906        H  0.72917231  0.88145435  0.24594193     0.11700
C907        C  0.90814862  0.54920266  0.13420652    -0.14400
C908        C  0.91522351  0.53034198  0.16033169     0.07700
C909        C  0.94154464  0.51069057  0.15895504    -0.14400
C910        C  0.95982194  0.50937576  0.13169756    -0.14400
C911        C  0.95182367  0.52734377  0.10521184     0.07700
C912        C  0.92605466  0.54755356  0.10697937    -0.14400
H913        H  0.88812096  0.56469876  0.13434724     0.11700
H914        H  0.94774994  0.49604202  0.17872179     0.11700
H915        H  0.97943477  0.49336367  0.13090753     0.11700
H916        H  0.91929746  0.56168361  0.08700573     0.11700
C917        C  0.82558968  0.60218173  0.19153296    -0.14400
C918        C  0.83026293  0.58188636  0.21719027     0.07700
C919        C  0.81525337  0.58861989  0.24563686    -0.14400
C920        C  0.79773125  0.61607354  0.24895473    -0.14400
C921        C  0.79447139  0.63717354  0.22380087     0.07700
C922        C  0.80767488  0.62946609  0.19475577    -0.14400
H923        H  0.83660933  0.59752756  0.16916875     0.11700
H924        H  0.81822154  0.57347735  0.26578784     0.11700
H925        H  0.78760657  0.62138348  0.27161246     0.11700
H926        H  0.80566816  0.64538011  0.17508058     0.11700
C927        C  0.55656868  0.05129436  0.12047185    -0.14400
C928        C  0.54419455  0.02198923  0.11233531     0.07700
C929        C  0.54821863  0.99657694  0.13297750    -0.14400
C930        C  0.56578968  0.99990937  0.16032477    -0.14400
C931        C  0.58007901  0.02864591  0.16741684     0.07700
C932        C  0.57453110  0.05454850  0.14766331    -0.14400
H933        H  0.55391137  0.07120057  0.10493652     0.11700
H934        H  0.53870415  0.97372673  0.12736472     0.11700
H935        H  0.56937355  0.97957035  0.17508882     0.11700
H936        H  0.58491992  0.07714229  0.15264927     0.11700
C937        C  0.62114019  0.94456866  0.94614107    -0.14400
C938        C  0.61158537  0.95478805  0.97587766     0.07700
C939        C  0.63170744  0.95028808  0.00156248    -0.14400
C940        C  0.65991017  0.93425863  0.99801015    -0.14400
C941        C  0.66846274  0.92198675  0.96875062     0.07700
C942        C  0.64924023  0.92814312  0.94264092    -0.14400
H943        H  0.60616277  0.94774655  0.92595650     0.11700
H944        H  0.62511419  0.95823011  0.02475923     0.11700
H945        H  0.67417694  0.93007525  0.01852542     0.11700
H946        H  0.65536093  0.91928758  0.91964934     0.11700
C947        C  0.42112766  0.95248393  0.89512502    -0.14400
C948        C  0.44817356  0.97098236  0.89585994     0.07700
C949        C  0.45679787  0.98750996  0.86866501    -0.14400
C950        C  0.43806883  0.98644668  0.84172643    -0.14400
C951        C  0.41058060  0.96851515  0.84134972     0.07700
C952        C  0.40271028  0.95110284  0.86820337    -0.14400
H953        H  0.41379245  0.93950526  0.91565127     0.11700
H954        H  0.47738023  0.00219142  0.86858331     0.11700
H955        H  0.44492250  0.99991326  0.82135656     0.11700
H956        H  0.38175789  0.93697391  0.86880745     0.11700
C957        C  0.50912137  0.12946448  0.95824725    -0.14400
C958        C  0.52679828  0.10275534  0.95046950     0.07700
C959        C  0.54646156  0.10386145  0.92420070    -0.14400
C960        C  0.54771681  0.13065605  0.90551041    -0.14400
C961        C  0.52903683  0.15692834  0.91237652     0.07700
C962        C  0.51005273  0.15623987  0.93923180    -0.14400
H963        H  0.49354492  0.12917479  0.97822570     0.11700
H964        H  0.56036113  0.08366563  0.91762040     0.11700
H965        H  0.56272696  0.13036887  0.88509992     0.11700
H966        H  0.49562013  0.17619743  0.94532039     0.11700
C967        C  0.12937505  0.19729722  0.69186159    -0.14400
C968        C  0.13788126  0.22646284  0.70443786     0.07700
C969        C  0.11768477  0.25219619  0.70047617    -0.14400
C970        C  0.09030764  0.24927225  0.68306842    -0.14400
C971        C  0.08268689  0.22064099  0.66879194     0.07700
C972        C  0.10212238  0.19446857  0.67396185    -0.14400
H973        H  0.14457003  0.17715190  0.69443845     0.11700
H974        H  0.12358156  0.27497258  0.71004734     0.11700
H975        H  0.07586231  0.26984255  0.67963984     0.11700
H976        H  0.09668731  0.17198064  0.66350162     0.11700
C977        C  0.28938165  0.11748472  0.74029596    -0.14400
C978        C  0.29860598  0.14449806  0.72376075     0.07700
C979        C  0.32585372  0.14331545  0.70558269    -0.14400
C980        C  0.34376046  0.11603600  0.70432872    -0.14400
C981        C  0.33514836  0.08928953  0.72153296     0.07700
C982        C  0.30764804  0.09017472  0.73939420    -0.14400
H983        H  0.26863614  0.11779284  0.75476483     0.11700
H984        H  0.33368972  0.16371695  0.69269249     0.11700
H985        H  0.36484187  0.11617836  0.69034839     0.11700
H986        H  0.30030170  0.06982688  0.75264205     0.11700
C987        C  0.35591657  0.29617434  0.82596044    -0.14400
C988        C  0.35414012  0.27627267  0.79982902     0.07700
C989        C  0.38034025  0.25810235  0.79171327    -0.14400
C990        C  0.40732105  0.25887780  0.81022396    -0.14400
C991        C  0.40871455  0.27817808  0.83691167     0.07700
C992        C  0.38290365  0.29727318  0.84413913    -0.14400
H993        H  0.33612838  0.31043992  0.83279843     0.11700
H994        H  0.37952288  0.24231486  0.77183355     0.11700
H995        H  0.42687975  0.24408850  0.80388361     0.11700
H996        H  0.38313263  0.31252650  0.86444264     0.11700
C997        C  0.15927488  0.61530914  0.69832671    -0.14400
C998        C  0.16546871  0.58925848  0.71758168     0.07700
C999        C  0.19044376  0.59080970  0.73883436    -0.14400
C1000       C  0.20833686  0.61819096  0.74123214    -0.14400
C1001       C  0.20121729  0.64456781  0.72274979     0.07700
C1002       C  0.17678218  0.64264957  0.70102412    -0.14400
H1003       H  0.14024852  0.61499330  0.68165169     0.11700
H1004       H  0.19590484  0.57106582  0.75382417     0.11700
H1005       H  0.22692484  0.61914354  0.75837890     0.11700
H1006       H  0.17076157  0.66256812  0.68646813     0.11700
C1007       C  0.06720147  0.49844224  0.84051639    -0.14400
C1008       C  0.08345391  0.47059222  0.83409725     0.07700
C1009       C  0.07981082  0.44483607  0.85445866    -0.14400
C1010       C  0.06146246  0.44742584  0.88147970    -0.14400
C1011       C  0.04688760  0.47595124  0.88878287     0.07700
C1012       C  0.04930271  0.50115009  0.86767367    -0.14400
H1013       H  0.06939893  0.51864925  0.82531398     0.11700
H1014       H  0.09183099  0.42292904  0.84997907     0.11700
H1015       H  0.06013917  0.42777502  0.89749778     0.11700
H1016       H  0.03817298  0.52341489  0.87275251     0.11700
C1017       C  0.17649312  0.39917435  0.80749245    -0.14400
C1018       C  0.17052794  0.41802224  0.78102474     0.07700
C1019       C  0.18401711  0.40974640  0.75225591    -0.14400
C1020       C  0.20109656  0.38205954  0.74942714    -0.14400
C1021       C  0.20543147  0.36216443  0.77536013     0.07700
C1022       C  0.19403372  0.37153948  0.80472596    -0.14400
H1023       H  0.16669543  0.40520973  0.83010468     0.11700
H1024       H  0.18000400  0.42376145  0.73148056     0.11700
H1025       H  0.20989738  0.37556162  0.72651924     0.11700
H1026       H  0.19706661  0.35665645  0.82506135     0.11700
C1027       C  0.20237444  0.15463721  0.88398568    -0.14400
C1028       C  0.22094694  0.16199385  0.91016700     0.07700
C1029       C  0.23993298  0.18880988  0.90895317    -0.14400
C1030       C  0.24074847  0.20743966  0.88189491    -0.14400
C1031       C  0.22291170  0.19935833  0.85541758     0.07700
C1032       C  0.20349345  0.17295078  0.85693125    -0.14400
H1033       H  0.18740817  0.13420262  0.88402777     0.11700
H1034       H  0.25434821  0.19523750  0.92876428     0.11700
H1035       H  0.25621123  0.22749032  0.88129268     0.11700
H1036       H  0.18954192  0.16605847  0.83692819     0.11700
C1037       C  0.36608219  0.09245942  0.04986346    -0.14400
C1038       C  0.34015442  0.08569642  0.03080084     0.07700
C1039       C  0.34150769  0.05944487  0.01090354    -0.14400
C1040       C  0.36846478  0.04079274  0.00968781    -0.14400
C1041       C  0.39472260  0.04836602  0.02795462     0.07700
C1042       C  0.39306568  0.07420224  0.04827173    -0.14400
H1043       H  0.36591246  0.11244847  0.06554163     0.11700
H1044       H  0.32187442  0.05347532  0.99612288     0.11700
H1045       H  0.36919871  0.02118207  0.99355351     0.11700
H1046       H  0.41289764  0.08066749  0.06258751     0.11700
C1047       C  0.46053262  0.50838387  0.36538286    -0.14400
C1048       C  0.45245846  0.52591561  0.39217796     0.07700
C1049       C  0.42723322  0.54678407  0.39049985    -0.14400
C1050       C  0.41002300  0.54968260  0.36300190    -0.14400
C1051       C  0.41726752  0.53149508  0.33643516     0.07700
C1052       C  0.44290692  0.51097188  0.33777598    -0.14400
H1053       H  0.47974584  0.49188812  0.36611583     0.11700
H1054       H  0.42041374  0.56058829  0.41070085     0.11700
H1055       H  0.39042310  0.56572772  0.36293369     0.11700
H1056       H  0.44915988  0.49680402  0.31765545     0.11700
C1057       C  0.66879486  0.39002121  0.69402717    -0.14400
C1058       C  0.66678127  0.41225248  0.71839081     0.07700
C1059       C  0.68436411  0.40746648  0.74574479    -0.14400
C1060       C  0.70196307  0.38017890  0.74946539    -0.14400
C1061       C  0.70282671  0.35737990  0.72571743     0.07700
C1062       C  0.68687891  0.36290700  0.69758188    -0.14400
H1063       H  0.65569761  0.39310228  0.67255383     0.11700
H1064       H  0.68352557  0.42414139  0.76488140     0.11700
H1065       H  0.71418812  0.37641650  0.77136360     0.11700
H1066       H  0.68698531  0.34549046  0.67908570     0.11700
C1067       C  0.56594443  0.49477742  0.65756240    -0.14400
C1068       C  0.58065837  0.46620363  0.66449962     0.07700
C1069       C  0.57562290  0.44031324  0.64458839    -0.14400
C1070       C  0.55754082  0.44349498  0.61740420    -0.14400
C1071       C  0.54466014  0.47272263  0.60954689     0.07700
C1072       C  0.54835221  0.49803996  0.63031927    -0.14400
H1073       H  0.56919224  0.51513184  0.67239671     0.11700
H1074       H  0.58641316  0.41786799  0.64950791     0.11700
H1075       H  0.55512110  0.42366621  0.60171624     0.11700
H1076       H  0.53848881  0.52081578  0.62491705     0.11700
C1077       C  0.68215477  0.59096721  0.75316262    -0.14400
C1078       C  0.66678256  0.58393883  0.78131873     0.07700
C1079       C  0.67103523  0.60393496  0.80728578    -0.14400
C1080       C  0.68907177  0.63120465  0.80461297    -0.14400
C1081       C  0.70268433  0.63912241  0.77579907     0.07700
C1082       C  0.69969292  0.61833619  0.75038494    -0.14400
H1083       H  0.67950037  0.57608231  0.73276355     0.11700
H1084       H  0.65971788  0.59897565  0.82941948     0.11700
H1085       H  0.69088990  0.64692051  0.82448008     0.11700
H1086       H  0.71009021  0.62382232  0.72790656     0.11700
C1087       C  0.56691942  0.50005626  0.84082131    -0.14400
C1088       C  0.58019228  0.52918647  0.83343223     0.07700
C1089       C  0.57352855  0.55522059  0.85263498    -0.14400
C1090       C  0.55525332  0.55174538  0.87963310    -0.14400
C1091       C  0.54387876  0.52208029  0.88806263     0.07700
C1092       C  0.54915778  0.49650795  0.86792639    -0.14400
H1093       H  0.57149764  0.47957585  0.82650015     0.11700
H1094       H  0.58317048  0.57806080  0.84728013     0.11700
H1095       H  0.55155967  0.57179688  0.89479056     0.11700
H1096       H  0.54047873  0.47338175  0.87375772     0.11700
C1097       C  0.55040619  0.36255193  0.40821535    -0.14400
C1098       C  0.53009714  0.33716706  0.41346593     0.07700
C1099       C  0.50821506  0.33934722  0.43788880    -0.14400
C1100       C  0.50628679  0.36664384  0.45614909    -0.14400
C1101       C  0.52588126  0.39235566  0.44996757     0.07700
C1102       C  0.54817207  0.38983710  0.42607417    -0.14400
H1103       H  0.56764861  0.36176531  0.38968728     0.11700
H1104       H  0.49238591  0.32016945  0.44264187     0.11700
H1105       H  0.48866311  0.36809958  0.47427660     0.11700
H1106       H  0.56358032  0.40923962  0.42079189     0.11700
C1107       C  0.25098677  0.31849218  0.59192186    -0.14400
C1108       C  0.27950863  0.33293111  0.58489309     0.07700
C1109       C  0.30534922  0.32720517  0.60448419    -0.14400
C1110       C  0.30226098  0.30876790  0.63143551    -0.14400
C1111       C  0.27318869  0.29613381  0.63945089     0.07700
C1112       C  0.24782394  0.30046349  0.61900777    -0.14400
H1113       H  0.23070628  0.32224215  0.57727715     0.11700
H1114       H  0.32777280  0.33772637  0.59950545     0.11700
H1115       H  0.32210276  0.30590274  0.64687042     0.11700
H1116       H  0.22514578  0.29079016  0.62457267     0.11700
C1117       C  0.33904790  0.44214270  0.51119651    -0.14400
C1118       C  0.33737036  0.41610459  0.53131930     0.07700
C1119       C  0.36359740  0.40847346  0.54963178    -0.14400
C1120       C  0.39117221  0.42555777  0.54700045    -0.14400
C1121       C  0.39320080  0.45104072  0.52632096     0.07700
C1122       C  0.36665787  0.45959517  0.50888698    -0.14400
H1123       H  0.31920874  0.44877229  0.49696539     0.11700
H1124       H  0.36322191  0.38863159  0.56546008     0.11700
H1125       H  0.41115638  0.41840161  0.56078270     0.11700
H1126       H  0.36759069  0.47903561  0.49258982     0.11700
C1127       C  0.39103757  0.92665017  0.45396810    -0.14400
C1128       C  0.39263690  0.95249346  0.47423898     0.07700
C1129       C  0.36614833  0.96061508  0.49197936    -0.14400
C1130       C  0.33899281  0.94240467  0.49031214    -0.14400
C1131       C  0.33776697  0.91603215  0.47056138     0.07700
C1132       C  0.36395632  0.90876887  0.45203644    -0.14400
H1133       H  0.41102453  0.91978775  0.44002137     0.11700
H1134       H  0.36681766  0.98028741  0.50803863     0.11700
H1135       H  0.31915844  0.94874631  0.50469734     0.11700
H1136       H  0.36392343  0.88868668  0.43648207     0.11700
C1137       C  0.42320491  0.04460897  0.61047272    -0.14400
C1138       C  0.44859678  0.02395238  0.60865993     0.07700
C1139       C  0.45617288  0.00566358  0.63508660    -0.14400
C1140       C  0.43827268  0.00777484  0.66261525    -0.14400
C1141       C  0.41282692  0.02854523  0.66424806     0.07700
C1142       C  0.40571782  0.04699669  0.63785247    -0.14400
H1143       H  0.41662740  0.05887564  0.59053556     0.11700
H1144       H  0.47538851  0.98917844  0.63419221     0.11700
H1145       H  0.44434697  0.99328234  0.68253665     0.11700
H1146       H  0.38619160  0.06313073  0.63806074     0.11700
C1147       C  0.55554282  0.94604592  0.38219516    -0.14400
C1148       C  0.54540173  0.97598330  0.39139424     0.07700
C1149       C  0.55232691  0.00184378  0.37215924    -0.14400
C1150       C  0.57010282  0.99816469  0.34505234    -0.14400
C1151       C  0.58175519  0.96857671  0.33667420     0.07700
C1152       C  0.57379425  0.94240525  0.35516236    -0.14400
H1153       H  0.55065674  0.92575666  0.39663410     0.11700
H1154       H  0.54472560  0.02523141  0.37856493     0.11700
H1155       H  0.57578871  0.01877296  0.33138081     0.11700
H1156       H  0.58224153  0.91922591  0.34911178     0.11700
C1157       C  0.44412278  0.12035870  0.44446834    -0.14400
C1158       C  0.47307423  0.11219740  0.45739347     0.07700
C1159       C  0.49856961  0.13245224  0.45311365    -0.14400
C1160       C  0.49575050  0.15932665  0.43470979    -0.14400
C1161       C  0.46745760  0.16634181  0.41977030     0.07700
C1162       C  0.44139307  0.14711199  0.42557619    -0.14400
H1163       H  0.42418006  0.10507075  0.44730385     0.11700
H1164       H  0.52116045  0.12677498  0.46297252     0.11700
H1165       H  0.51621548  0.17366753  0.43087758     0.11700
H1166       H  0.41915095  0.15214705  0.41466353     0.11700
C1167       C  0.40816480  0.74583482  0.68542154    -0.14400
C1168       C  0.41287431  0.71883402  0.66710517     0.07700
C1169       C  0.39114983  0.69416131  0.66929160    -0.14400
C1170       C  0.36452899  0.69716134  0.68812149    -0.14400
C1171       C  0.35896216  0.72504323  0.70469568     0.07700
C1172       C  0.38138867  0.74899799  0.70376964    -0.14400
H1173       H  0.42447313  0.76517698  0.68457734     0.11700
H1174       H  0.39419053  0.67290892  0.65570997     0.11700
H1175       H  0.34743578  0.67848733  0.68823976     0.11700
H1176       H  0.37765142  0.77071255  0.71644444     0.11700
C1177       C  0.44150342  0.64485968  0.57588446    -0.14400
C1178       C  0.46669035  0.66569948  0.57984702     0.07700
C1179       C  0.49481372  0.65930806  0.56422209    -0.14400
C1180       C  0.49835376  0.63175403  0.54683565    -0.14400
C1181       C  0.47370826  0.61021284  0.54416338     0.07700
C1182       C  0.44491213  0.61748152  0.55797306    -0.14400
H1183       H  0.41941271  0.64921633  0.58739612     0.11700
H1184       H  0.51462444  0.67484000  0.56660189     0.11700
H1185       H  0.52079196  0.62675726  0.53626917     0.11700
H1186       H  0.42563468  0.60117453  0.55642990     0.11700
C1187       C  0.58968830  0.75234166  0.68283097    -0.14400
C1188       C  0.58127313  0.78160158  0.67042957     0.07700
C1189       C  0.60004114  0.80785478  0.67728187    -0.14400
C1190       C  0.62754372  0.80453357  0.69473483    -0.14400
C1191       C  0.63698207  0.77482114  0.70522733     0.07700
C1192       C  0.61730589  0.74896111  0.69982411    -0.14400
H1193       H  0.57577932  0.73169795  0.67807881     0.11700
H1194       H  0.59398790  0.83082572  0.66830346     0.11700
H1195       H  0.64220493  0.82484201  0.69853973     0.11700
H1196       H  0.62381781  0.72576266  0.70786531     0.11700
C1197       C  0.55070952  0.86360618  0.59005015    -0.14400
C1198       C  0.52985922  0.83860798  0.58512988     0.07700
C1199       C  0.50788486  0.84103934  0.56079740    -0.14400
C1200       C  0.50609608  0.86834764  0.54262733    -0.14400
C1201       C  0.52596724  0.89383426  0.54874058     0.07700
C1202       C  0.54863116  0.89094152  0.57223358    -0.14400
H1203       H  0.56813343  0.86254919  0.60837825     0.11700
H1204       H  0.49162702  0.82217547  0.55624195     0.11700
H1205       H  0.48821360  0.87008013  0.52479095     0.11700
H1206       H  0.56431005  0.91016810  0.57736742     0.11700
C1207       C  0.26274546  0.19340231  0.08749869    -0.14400
C1208       C  0.28161752  0.16641030  0.08675306     0.07700
C1209       C  0.29840112  0.15816504  0.11385224    -0.14400
C1210       C  0.29584634  0.17578676  0.14120806    -0.14400
C1211       C  0.27666370  0.20243355  0.14232070     0.07700
C1212       C  0.26047990  0.21143345  0.11502318    -0.14400
H1213       H  0.24971687  0.20046399  0.06694091     0.11700
H1214       H  0.31310112  0.13748995  0.11426912     0.11700
H1215       H  0.30856976  0.16813542  0.16176146     0.11700
H1216       H  0.24528943  0.23174698  0.11526056     0.11700
C1217       C  0.30185745  0.38129970  0.25232828    -0.14400
C1218       C  0.29518663  0.36216437  0.22627085     0.07700
C1219       C  0.30432914  0.37225503  0.19637464    -0.14400
C1220       C  0.32175829  0.39981001  0.19292879    -0.14400
C1221       C  0.32989386  0.41801468  0.21925656     0.07700
C1222       C  0.31880410  0.40902928  0.24883546    -0.14400
H1223       H  0.29485569  0.37426189  0.27568010     0.11700
H1224       H  0.29950644  0.35801689  0.17591858     0.11700
H1225       H  0.32970148  0.40635064  0.16974403     0.11700
H1226       H  0.32458355  0.42253266  0.26953735     0.11700
C1227       C  0.38291716  0.24612615  0.29404319    -0.14400
C1228       C  0.36055929  0.22207713  0.29364208     0.07700
C1229       C  0.36662084  0.19421858  0.31001443    -0.14400
C1230       C  0.39364936  0.19141990  0.32828033    -0.14400
C1231       C  0.41523137  0.21628164  0.33008347     0.07700
C1232       C  0.41006367  0.24317228  0.31182226    -0.14400
H1233       H  0.37878088  0.26783017  0.28150361     0.11700
H1234       H  0.34960221  0.17547721  0.31027675     0.11700
H1235       H  0.39707094  0.17022939  0.34184005     0.11700
H1236       H  0.42621884  0.26265459  0.31242736     0.11700
C1237       C  0.19732557  0.30665836  0.36948632    -0.14400
C1238       C  0.22675509  0.29520625  0.36083670     0.07700
C1239       C  0.25226731  0.30044113  0.38089549    -0.14400
C1240       C  0.24881559  0.31816098  0.40820109    -0.14400
C1241       C  0.21983897  0.33139587  0.41586330     0.07700
C1242       C  0.19393236  0.32477140  0.39665933    -0.14400
H1243       H  0.17732690  0.30307436  0.35442076     0.11700
H1244       H  0.27523759  0.29169791  0.37490152     0.11700
H1245       H  0.26917426  0.32266073  0.42250874     0.11700
H1246       H  0.17117430  0.33436780  0.40210942     0.11700
C1247       C  0.20360617  0.67657356  0.14159910    -0.14400
C1248       C  0.22582422  0.70053324  0.14418086     0.07700
C1249       C  0.24558992  0.70660522  0.11857908    -0.14400
C1250       C  0.24381203  0.68830620  0.09131996    -0.14400
C1251       C  0.22194660  0.66386455  0.08901381     0.07700
C1252       C  0.20153156  0.65863578  0.11431538    -0.14400
H1253       H  0.18809197  0.67134267  0.16093113     0.11700
H1254       H  0.26320970  0.72471799  0.12007240     0.11700
H1255       H  0.25978560  0.69305488  0.07225753     0.11700
H1256       H  0.18430200  0.64011847  0.11342851     0.11700
C1257       C  0.13448919  0.69729815  0.31146747    -0.14400
C1258       C  0.14143531  0.72569617  0.29647718     0.07700
C1259       C  0.12013289  0.75069671  0.29862713    -0.14400
C1260       C  0.09306921  0.74792184  0.31654546    -0.14400
C1261       C  0.08689219  0.72020017  0.33312605     0.07700
C1262       C  0.10754341  0.69463884  0.32983836    -0.14400
H1263       H  0.15067966  0.67780412  0.31039384     0.11700
H1264       H  0.12493564  0.77285398  0.28719102     0.11700
H1265       H  0.07765364  0.76797785  0.31838505     0.11700
H1266       H  0.10332680  0.67282649  0.34210882     0.11700
C1267       C  0.29413255  0.61908227  0.25687234    -0.14400
C1268       C  0.29994297  0.64448758  0.27709904     0.07700
C1269       C  0.32370482  0.64186795  0.29947557    -0.14400
C1270       C  0.34185243  0.61479049  0.30114134    -0.14400
C1271       C  0.33699785  0.58975475  0.28016751     0.07700
C1272       C  0.31266189  0.59201056  0.25823745    -0.14400
H1273       H  0.27614058  0.62066590  0.23913470     0.11700
H1274       H  0.32870367  0.66107284  0.31532833     0.11700
H1275       H  0.36028401  0.61390701  0.31845712     0.11700
H1276       H  0.30820612  0.57309221  0.24190431     0.11700
C1277       C  0.24920303  0.80172181  0.38118721    -0.14400
C1278       C  0.27496179  0.79694859  0.36131939     0.07700
C1279       C  0.30420265  0.80844760  0.37039629    -0.14400
C1280       C  0.30714590  0.82618274  0.39787252    -0.14400
C1281       C  0.28096804  0.83232634  0.41690943     0.07700
C1282       C  0.25221057  0.81900727  0.40878476    -0.14400
H1283       H  0.22638586  0.79289065  0.37485122     0.11700
H1284       H  0.32437174  0.80517840  0.35546568     0.11700
H1285       H  0.32973709  0.83588710  0.40368819     0.11700
H1286       H  0.23165561  0.82315460  0.42294435     0.11700
C1287       C  0.17283553  0.89485969  0.19263827    -0.14400
C1288       C  0.16949582  0.91549707  0.21827671     0.07700
C1289       C  0.18663347  0.90963476  0.24565798    -0.14400
C1290       C  0.20487884  0.88266373  0.24820504    -0.14400
C1291       C  0.20680194  0.86114723  0.22330956     0.07700
C1292       C  0.19154884  0.86798093  0.19506845    -0.14400
H1293       H  0.16016924  0.89889939  0.17106112     0.11700
H1294       H  0.18478438  0.92505500  0.26575154     0.11700
H1295       H  0.21653082  0.87792628  0.27023152     0.11700
H1296       H  0.19248491  0.85161566  0.17566141     0.11700
C1297       C  0.05856228  0.01076024  0.34008408    -0.14400
C1298       C  0.08452694  0.03084804  0.33902048     0.07700
C1299       C  0.09113983  0.04953936  0.36537192    -0.14400
C1300       C  0.07301405  0.04753780  0.39241461    -0.14400
C1301       C  0.04747413  0.02707247  0.39385460     0.07700
C1302       C  0.04003796  0.00907064  0.36719971    -0.14400
H1303       H  0.05273245  0.99621671  0.32011848     0.11700
H1304       H  0.11093143  0.06528075  0.36549635     0.11700
H1305       H  0.07941473  0.06166474  0.41251213     0.11700
H1306       H  0.02065091  0.99283462  0.36772437     0.11700
C1307       C  0.15842502  0.11436792  0.30010912    -0.14400
C1308       C  0.16506060  0.08796031  0.28142153     0.07700
C1309       C  0.19024042  0.08947607  0.26036778    -0.14400
C1310       C  0.20796151  0.11702543  0.25774967    -0.14400
C1311       C  0.20050887  0.14369040  0.27578125     0.07700
C1312       C  0.17573646  0.14187762  0.29716056    -0.14400
H1313       H  0.13922967  0.11416208  0.31659621     0.11700
H1314       H  0.19606189  0.06952656  0.24576199     0.11700
H1315       H  0.22680608  0.11780659  0.24087254     0.11700
H1316       H  0.16940230  0.16195554  0.31138615     0.11700
C1317       C  0.55099570  0.63228560  0.08960557    -0.14400
C1318       C  0.53104183  0.65801334  0.08449708     0.07700
C1319       C  0.50951953  0.65655996  0.05969275    -0.14400
C1320       C  0.50744819  0.62953117  0.04104273    -0.14400
C1321       C  0.52653112  0.60338123  0.04722841     0.07700
C1322       C  0.54862396  0.60528597  0.07135831    -0.14400
H1323       H  0.56796694  0.63254375  0.10838877     0.11700
H1324       H  0.49402470  0.67607255  0.05499037     0.11700
H1325       H  0.49002428  0.62858293  0.02270124     0.11700
H1326       H  0.56367043  0.58554968  0.07662953     0.11700
C1327       C  0.61482668  0.69705118  0.15759970    -0.14400
C1328       C  0.58846102  0.71532812  0.16500716     0.07700
C1329       C  0.59008255  0.73606623  0.19055776    -0.14400
C1330       C  0.61770962  0.73883590  0.20790253    -0.14400
C1331       C  0.64431026  0.72127984  0.19967548     0.07700
C1332       C  0.64243055  0.70017182  0.17454209    -0.14400
H1333       H  0.61449575  0.68080067  0.13808394     0.11700
H1334       H  0.57014776  0.75031016  0.19695588     0.11700
H1335       H  0.61857521  0.75548239  0.22706747     0.11700
H1336       H  0.66248927  0.68631514  0.16766330     0.11700
C1337       C  0.50188653  0.86537628  0.04989247    -0.14400
C1338       C  0.47628140  0.88561444  0.04549753     0.07700
C1339       C  0.44707997  0.87676385  0.05728250    -0.14400
C1340       C  0.44404961  0.84925054  0.07493711    -0.14400
C1341       C  0.47008015  0.82987364  0.08077474     0.07700
C1342       C  0.49878641  0.83772543  0.06715730    -0.14400
H1343       H  0.52468944  0.87149662  0.04087095     0.11700
H1344       H  0.42700718  0.89192034  0.05434175     0.11700
H1345       H  0.42148065  0.84367305  0.08484131     0.11700
H1346       H  0.51923001  0.82331508  0.07106982     0.11700
C1347       C  0.38689091  0.79608764  0.15753554    -0.14400
C1348       C  0.41297210  0.77751270  0.16504750     0.07700
C1349       C  0.41167748  0.75838661  0.19186388    -0.14400
C1350       C  0.38454364  0.75741483  0.21027535    -0.14400
C1351       C  0.35815316  0.77523240  0.20191092     0.07700
C1352       C  0.35986297  0.79483431  0.17558648    -0.14400
H1353       H  0.38694808  0.81113627  0.13710006     0.11700
H1354       H  0.43144152  0.74397930  0.19840632     0.11700
H1355       H  0.38380425  0.74185078  0.23031048     0.11700
H1356       H  0.33997720  0.80881378  0.16848183     0.11700
C1357       C  0.99911926  0.63094706  0.44899073    -0.14400
C1358       C  0.02438583  0.61028439  0.45302473     0.07700
C1359       C  0.05355995  0.61838857  0.44062975    -0.14400
C1360       C  0.05689013  0.64579922  0.42288484    -0.14400
C1361       C  0.03121079  0.66578105  0.41769621     0.07700
C1362       C  0.00253709  0.65849150  0.43171826    -0.14400
H1363       H  0.97636184  0.62531445  0.45844417     0.11700
H1364       H  0.07333161  0.60277840  0.44325947     0.11700
H1365       H  0.07938462  0.65093060  0.41257691     0.11700
H1366       H  0.98233829  0.67336025  0.42825284     0.11700
C1367       C  0.07526401  0.54742863  0.60618613    -0.14400
C1368       C  0.04971190  0.52701551  0.60469915     0.07700
C1369       C  0.04170249  0.50953392  0.63150286    -0.14400
C1370       C  0.05966444  0.51166464  0.65889869    -0.14400
C1371       C  0.08561943  0.53169254  0.66007647     0.07700
C1372       C  0.09283312  0.54989618  0.63353794    -0.14400
H1373       H  0.08203494  0.56118583  0.58597007     0.11700
H1374       H  0.02223338  0.49339811  0.63093888     0.11700
H1375       H  0.05339302  0.49753270  0.67900630     0.11700
H1376       H  0.11265274  0.56560344  0.63353128     0.11700
C1377       C  0.13190420  0.45892880  0.48946912    -0.14400
C1378       C  0.10524071  0.44983934  0.47256213     0.07700
C1379       C  0.10685314  0.42323102  0.45326614    -0.14400
C1380       C  0.13424992  0.40569939  0.45135548    -0.14400
C1381       C  0.16066849  0.41408194  0.46900193     0.07700
C1382       C  0.15931738  0.44106867  0.48788458    -0.14400
H1383       H  0.13123944  0.47919548  0.50477501     0.11700
H1384       H  0.08671161  0.41560928  0.43999682     0.11700
H1385       H  0.13441003  0.38506175  0.43654244     0.11700
H1386       H  0.17932369  0.44824244  0.50158512     0.11700
C1387       C  0.93564683  0.49476804  0.33900481    -0.14400
C1388       C  0.92023728  0.46644427  0.33265449     0.07700
C1389       C  0.92449421  0.44096180  0.35323333    -0.14400
C1390       C  0.94237270  0.44431806  0.38048617    -0.14400
C1391       C  0.95581800  0.47335450  0.38785621     0.07700
C1392       C  0.95302443  0.49825356  0.36643684    -0.14400
H1393       H  0.93299683  0.51479071  0.32362402     0.11700
H1394       H  0.91316756  0.41870917  0.34881245     0.11700
H1395       H  0.94408166  0.42483386  0.39667450     0.11700
H1396       H  0.96335449  0.52087258  0.37150374     0.11700
C1397       C  0.95099757  0.39326635  0.57496888    -0.14400
C1398       C  0.97168889  0.39431726  0.54951726     0.07700
C1399       C  0.98930219  0.36741039  0.54222863    -0.14400
C1400       C  0.98707303  0.34038963  0.56082202    -0.14400
C1401       C  0.96681300  0.33964741  0.58671290     0.07700
C1402       C  0.94843368  0.36624220  0.59318608    -0.14400
H1403       H  0.93715031  0.41360917  0.58119823     0.11700
H1404       H  0.00567722  0.36765462  0.52290574     0.11700
H1405       H  0.00137448  0.32022840  0.55510373     0.11700
H1406       H  0.93255270  0.36655112  0.61291961     0.11700
C1407       C  0.74511535  0.68302347  0.40834598    -0.14400
C1408       C  0.71795776  0.66561042  0.41403962     0.07700
C1409       C  0.69294183  0.66799687  0.39274357    -0.14400
C1410       C  0.69566070  0.68627134  0.36560581    -0.14400
C1411       C  0.72358462  0.70204890  0.35914989     0.07700
C1412       C  0.74796597  0.70083037  0.38109871    -0.14400
H1413       H  0.76474537  0.68188297  0.42425820     0.11700
H1414       H  0.67158055  0.65504618  0.39657231     0.11700
H1415       H  0.67667358  0.68662484  0.34887867     0.11700
H1416       H  0.76974011  0.71288460  0.37664281     0.11700
C1417       C  0.64704005  0.57260603  0.44271615    -0.14400
C1418       C  0.66576294  0.57917866  0.46902748     0.07700
C1419       C  0.65761730  0.56620663  0.49808943    -0.14400
C1420       C  0.63025430  0.54885709  0.50123867    -0.14400
C1421       C  0.61064111  0.54368545  0.47532757     0.07700
C1422       C  0.61981395  0.55476327  0.44579327    -0.14400
H1423       H  0.65294503  0.58203384  0.41991597     0.11700
H1424       H  0.67154210  0.57074791  0.51876573     0.11700
H1425       H  0.62385834  0.54037362  0.52428539     0.11700
H1426       H  0.60510812  0.55115221  0.42548466     0.11700
C1427       C  0.80647061  0.67430976  0.60432324    -0.14400
C1428       C  0.78067068  0.66828695  0.58480834     0.07700
C1429       C  0.75176967  0.68175108  0.59235060    -0.14400
C1430       C  0.74822511  0.69915352  0.61977682    -0.14400
C1431       C  0.77357619  0.70389326  0.64010496     0.07700
C1432       C  0.80299834  0.69221282  0.63165878    -0.14400
H1433       H  0.82913653  0.66446457  0.59892552     0.11700
H1434       H  0.73147018  0.67763669  0.57784207     0.11700
H1435       H  0.72528332  0.70808072  0.62561698     0.11700
H1436       H  0.82287048  0.69547329  0.64696441     0.11700
C1437       C  0.84080796  0.56442940  0.50421605    -0.14400
C1438       C  0.83553212  0.58205305  0.53152624     0.07700
C1439       C  0.85711543  0.57987668  0.55632625    -0.14400
C1440       C  0.88414989  0.56169163  0.55319664    -0.14400
C1441       C  0.89022658  0.54579584  0.52507005     0.07700
C1442       C  0.86798010  0.54671886  0.50093853    -0.14400
H1443       H  0.82462330  0.56534967  0.48476585     0.11700
H1444       H  0.85360688  0.59295499  0.57780725     0.11700
H1445       H  0.90108814  0.56150822  0.57201899     0.11700
H1446       H  0.87211565  0.53450891  0.47904655     0.11700
C1447       C  0.70872589  0.11480545  0.24043915    -0.14400
C1448       C  0.70009596  0.14188056  0.22364888     0.07700
C1449       C  0.67348378  0.14072899  0.20452055    -0.14400
C1450       C  0.65554778  0.11350551  0.20270863    -0.14400
C1451       C  0.66350037  0.08671705  0.22023707     0.07700
C1452       C  0.69048460  0.08754830  0.23891053    -0.14400
H1453       H  0.72895881  0.11502470  0.25561119     0.11700
H1454       H  0.66610379  0.16114456  0.19135294     0.11700
H1455       H  0.63492848  0.11378692  0.18806810     0.11700
H1456       H  0.69736387  0.06725325  0.25251497     0.11700
C1457       C  0.74935049  0.31816413  0.09367864    -0.14400
C1458       C  0.72139411  0.33384745  0.08679725     0.07700
C1459       C  0.69542465  0.32910871  0.10648599    -0.14400
C1460       C  0.69784213  0.31016670  0.13322926    -0.14400
C1461       C  0.72638848  0.29606684  0.14094838     0.07700
C1462       C  0.75186687  0.29969892  0.12053846    -0.14400
H1463       H  0.76973871  0.32114926  0.07901610     0.11700
H1464       H  0.67343493  0.34064372  0.10165803     0.11700
H1465       H  0.67794970  0.30794129  0.14870210     0.11700
H1466       H  0.77416237  0.28899955  0.12590870     0.11700
C1467       C  0.61739866  0.25511828  0.29128892    -0.14400
C1468       C  0.64323543  0.27412266  0.29852686     0.07700
C1469       C  0.64060505  0.29619556  0.32271324    -0.14400
C1470       C  0.61306336  0.29887993  0.33977904    -0.14400
C1471       C  0.58746639  0.27922715  0.33345917     0.07700
C1472       C  0.58978710  0.25747643  0.30879447    -0.14400
H1473       H  0.61893728  0.23767039  0.27288787     0.11700
H1474       H  0.66008557  0.31115325  0.32879112     0.11700
H1475       H  0.61222702  0.31596147  0.35855645     0.11700
H1476       H  0.57046470  0.24212759  0.30325853     0.11700
C1477       C  0.79724702  0.38002445  0.25189047    -0.14400
C1478       C  0.79453038  0.35922997  0.27729248     0.07700
C1479       C  0.80883841  0.36694464  0.30582919    -0.14400
C1480       C  0.82745247  0.39389403  0.30810138    -0.14400
C1481       C  0.83162411  0.41373778  0.28199905     0.07700
C1482       C  0.81536320  0.40705227  0.25426783    -0.14400
H1483       H  0.78631729  0.37467794  0.22963204     0.11700
H1484       H  0.80724777  0.35120617  0.32567873     0.11700
H1485       H  0.83940553  0.39860418  0.32995083     0.11700
H1486       H  0.81785362  0.42183889  0.23379738     0.11700
C1487       C  0.69971445  0.15554720  0.61658578    -0.14400
C1488       C  0.71827060  0.16288035  0.59039993     0.07700
C1489       C  0.73847199  0.18873425  0.59209375    -0.14400
C1490       C  0.74046099  0.20646798  0.61966527    -0.14400
C1491       C  0.72259822  0.19835715  0.64609575     0.07700
C1492       C  0.70198926  0.17294491  0.64411783    -0.14400
H1493       H  0.68384823  0.13581586  0.61616979     0.11700
H1494       H  0.75292017  0.19506752  0.57227757     0.11700
H1495       H  0.75676619  0.22581672  0.62065930     0.11700
H1496       H  0.68793938  0.16614666  0.66408276     0.11700
C1497       C  0.65528644  0.06849845  0.50292683    -0.14400
C1498       C  0.66405714  0.08084828  0.53204563     0.07700
C1499       C  0.64570395  0.07399935  0.55859892    -0.14400
C1500       C  0.61824204  0.05651554  0.55572953    -0.14400
C1501       C  0.60852459  0.04597648  0.52620003     0.07700
C1502       C  0.62775089  0.05141443  0.50001692    -0.14400
H1503       H  0.66890127  0.07325107  0.48209117     0.11700
H1504       H  0.65207301  0.08294341  0.58147697     0.11700
H1505       H  0.60385759  0.05268633  0.57623242     0.11700
H1506       H  0.62094967  0.04330734  0.47694451     0.11700
C1507       C  0.84083926  0.06743916  0.50061334    -0.14400
C1508       C  0.83248780  0.07999105  0.47143379     0.07700
C1509       C  0.85098471  0.07294373  0.44505356    -0.14400
C1510       C  0.87827136  0.05519009  0.44815483    -0.14400
C1511       C  0.88771951  0.04458984  0.47775932     0.07700
C1512       C  0.86826791  0.05009524  0.50377252    -0.14400
H1513       H  0.82705461  0.07233429  0.52132051     0.11700
H1514       H  0.84490484  0.08200571  0.42214564     0.11700
H1515       H  0.89281285  0.05129447  0.42776326     0.11700
H1516       H  0.87486123  0.04194482  0.52688618     0.11700
C1517       C  0.79836915  0.15589548  0.38697870    -0.14400
C1518       C  0.78084493  0.16425118  0.41360129     0.07700
C1519       C  0.76222162  0.19136935  0.41242803    -0.14400
C1520       C  0.76039832  0.20909585  0.38480920    -0.14400
C1521       C  0.77680472  0.19972180  0.35778615     0.07700
C1522       C  0.79622101  0.17326934  0.35940771    -0.14400
H1523       H  0.81308550  0.13522969  0.38701348     0.11700
H1524       H  0.74874490  0.19860604  0.43264769     0.11700
H1525       H  0.74517459  0.22937798  0.38423458     0.11700
H1526       H  0.80925044  0.16550652  0.33907558     0.11700
C1527       C  0.88128919  0.24899271  0.20483160    -0.14400
C1528       C  0.86086551  0.22333711  0.20752195     0.07700
C1529       C  0.86931654  0.19460677  0.19394321    -0.14400
C1530       C  0.89663938  0.19229162  0.17605633    -0.14400
C1531       C  0.91615172  0.21856016  0.17182897     0.07700
C1532       C  0.90869853  0.24659257  0.18736513    -0.14400
H1533       H  0.87543352  0.27140672  0.21529343     0.11700
H1534       H  0.85395069  0.17453854  0.19557391     0.11700
H1535       H  0.90193169  0.17019616  0.16468951     0.11700
H1536       H  0.92323648  0.26717843  0.18482287     0.11700
C1537       C  0.04976514  0.36559073  0.09219387    -0.14400
C1538       C  0.02979276  0.33996903  0.08672448     0.07700
C1539       C  0.00835565  0.34184418  0.06187388    -0.14400
C1540       C  0.00673695  0.36896442  0.04326078    -0.14400
C1541       C  0.02618258  0.39481367  0.04951089     0.07700
C1542       C  0.04783422  0.39266121  0.07400492    -0.14400
H1543       H  0.06661176  0.36511455  0.11108544     0.11700
H1544       H  0.99276326  0.32250813  0.05695427     0.11700
H1545       H  0.98953748  0.37014640  0.02471880     0.11700
H1546       H  0.06306446  0.41216899  0.07943757     0.11700
C1547       C  0.09003624  0.26241737  0.19225203    -0.14400
C1548       C  0.08833212  0.28246637  0.16618168     0.07700
C1549       C  0.11453470  0.30078109  0.15852577    -0.14400
C1550       C  0.14203988  0.29841490  0.17578407    -0.14400
C1551       C  0.14403633  0.27798833  0.20146633     0.07700
C1552       C  0.11757616  0.26038982  0.20989879    -0.14400
H1553       H  0.07021197  0.24818811  0.19886796     0.11700
H1554       H  0.11414200  0.31650276  0.13860145     0.11700
H1555       H  0.16197687  0.31225065  0.16865618     0.11700
H1556       H  0.11851371  0.24422477  0.22944620     0.11700
C1557       C  0.12222176  0.05481693  0.94604548    -0.14400
C1558       C  0.11324199  0.04392678  0.97570234     0.07700
C1559       C  0.13352731  0.04844183  0.00123713    -0.14400
C1560       C  0.16131555  0.06510694  0.99764746    -0.14400
C1561       C  0.16926145  0.07803128  0.96850643     0.07700
C1562       C  0.14988245  0.07189691  0.94251733    -0.14400
H1563       H  0.10707650  0.05166890  0.92598616     0.11700
H1564       H  0.12735456  0.03999552  0.02435587     0.11700
H1565       H  0.17573253  0.06920643  0.01806924     0.11700
H1566       H  0.15552905  0.08123226  0.91961332     0.11700
C1567       C  0.05782641  0.94486402  0.12037850    -0.14400
C1568       C  0.04577702  0.97424765  0.11186071     0.07700
C1569       C  0.04963046  0.99978932  0.13234677    -0.14400
C1570       C  0.06678084  0.99657380  0.15989708    -0.14400
C1571       C  0.08088978  0.96783746  0.16735703     0.07700
C1572       C  0.07549635  0.94173811  0.14782099    -0.14400
H1573       H  0.05519379  0.92484710  0.10496594     0.11700
H1574       H  0.04033545  0.02268150  0.12644376     0.11700
H1575       H  0.07036067  0.01707261  0.17445398     0.11700
H1576       H  0.08580704  0.91916837  0.15319212     0.11700
C1577       C  0.00205168  0.13135764  0.05248301    -0.14400
C1578       C  0.97698584  0.11041172  0.04893040     0.07700
C1579       C  0.94820159  0.11789070  0.06266056    -0.14400
C1580       C  0.94510856  0.14498192  0.08105096    -0.14400
C1581       C  0.97061281  0.16531043  0.08559691     0.07700
C1582       C  0.99884436  0.15859680  0.07038151    -0.14400
H1583       H  0.02452887  0.12619755  0.04208386     0.11700
H1584       H  0.92860956  0.10203930  0.06051055     0.11700
H1585       H  0.92293499  0.14962487  0.09229100     0.11700
H1586       H  0.01890230  0.17370852  0.07332370     0.11700
C1587       C  0.87055612  0.95670785  0.00638760    -0.14400
C1588       C  0.89600815  0.95022148  0.02615929     0.07700
C1589       C  0.89342228  0.92585972  0.04807181    -0.14400
C1590       C  0.86618801  0.90810914  0.04999654    -0.14400
C1591       C  0.84094684  0.91389462  0.02969667     0.07700
C1592       C  0.84335530  0.93854435  0.00796259    -0.14400
H1593       H  0.87209712  0.97510159  0.98896065     0.11700
H1594       H  0.91266850  0.92025318  0.06352995     0.11700
H1595       H  0.86524400  0.88934464  0.06706337     0.11700
H1596       H  0.82433631  0.94368205  0.99208513     0.11700
C1597       C  0.92568142  0.04703660  0.89380212    -0.14400
C1598       C  0.95203031  0.02755505  0.89515036     0.07700
C1599       C  0.96032044  0.01008854  0.86837015    -0.14400
C1600       C  0.94186196  0.01121172  0.84123229    -0.14400
C1601       C  0.91507400  0.03018884  0.84026604     0.07700
C1602       C  0.90759415  0.04849601  0.86669860    -0.14400
H1603       H  0.91861192  0.06072475  0.91399342     0.11700
H1604       H  0.98037912  0.99463649  0.86879723     0.11700
H1605       H  0.94838446  0.99708040  0.82117189     0.11700
H1606       H  0.88714926  0.06343632  0.86684477     0.11700
C1607       C  0.04899100  0.89207674  0.92627835    -0.14400
C1608       C  0.02741066  0.89437211  0.95082749     0.07700
C1609       C  0.00779605  0.86872192  0.95718851    -0.14400
C1610       C  0.00888921  0.84175767  0.93838835    -0.14400
C1611       C  0.02995509  0.83985738  0.91323617     0.07700
C1612       C  0.05041534  0.86510473  0.90787846    -0.14400
H1613       H  0.06438527  0.91145571  0.92086471     0.11700
H1614       H  0.99070395  0.87003769  0.97583419     0.11700
H1615       H  0.99302023  0.82264648  0.94327381     0.11700
H1616       H  0.06709403  0.86449119  0.88883072     0.11700
loop_ 
_geom_bond_atom_site_label_1 
_geom_bond_atom_site_label_2 
_geom_bond_distance 
_geom_bond_site_symmetry_2 
_ccdc_geom_bond_type 
Zn1           O5   1.922       .  S
Zn1           O6   1.974       .  S
Zn1          O10   1.978       .  S
Zn1          O17   1.982       .  S
Zn2           O5   1.970   1_665  S
Zn2           O7   2.011       .  S
Zn2           O9   2.049   1_655  S
Zn2          O13   2.018   1_654  S
Zn3           O5   1.966   1_656  S
Zn3           O8   2.061   1_556  S
Zn3          O11   2.030   1_546  S
Zn3          O14   2.017       .  S
Zn4           O5   1.967   1_566  S
Zn4          O12   2.028   1_465  S
Zn4          O15   2.011       .  S
Zn4          O16   2.058   1_565  S
O6           C18   1.269   1_545  A
O7           C19   1.274       .  A
O8           C20   1.278       .  A
O9           C18   1.276       .  A
O10          C20   1.269   1_455  A
O11          C19   1.275       .  A
O12          C21   1.275       .  A
O13          C22   1.274       .  A
O14          C21   1.276       .  A
O15          C22   1.275       .  A
O16          C23   1.277       .  A
O17          C23   1.269   1_554  A
C18        C1568   1.476       .  S
C19        C1588   1.480       .  S
C20        C1578   1.479       .  S
C21        C1598   1.482       .  S
C22        C1608   1.477       .  S
C23        C1558   1.481       .  S
C24        C1548   1.485       .  S
C24          N25   1.353       .  A
C24          N29   1.361       .  A
N25          C26   1.354       .  A
C26        C1538   1.486       .  S
C26          N27   1.363       .  A
N27          C28   1.365       .  A
C28          C32   1.471   1_455  S
C28          N29   1.363       .  A
C30        C1531   1.484       .  S
C30          N31   1.363       .  A
C30          N35   1.357       .  A
N31          C32   1.360       .  A
C32          N33   1.359       .  A
N33          C34   1.362       .  A
C34        C1581   1.484       .  S
C34          N35   1.357       .  A
C36        C1518   1.483       .  S
C36          N37   1.363       .  A
C36          N41   1.356       .  A
N37          C38   1.362       .  A
C38          C44   1.466       .  S
C38          N39   1.359       .  A
N39          C40   1.359       .  A
C40        C1508   1.479       .  S
C40          N41   1.353       .  A
C42        C1498   1.480       .  S
C42          N43   1.360       .  A
C42          N47   1.353       .  A
N43          C44   1.360       .  A
C44          N45   1.361       .  A
N45          C46   1.362       .  A
C46        C1488   1.480       .  S
C46          N47   1.355       .  A
Zn48         O52   1.970       .  S
Zn48         O53   2.060       .  S
Zn48         O57   2.022       .  S
Zn48         O64   2.014       .  S
Zn49         O52   1.918       .  S
Zn49         O54   1.969       .  S
Zn49         O56   1.972       .  S
Zn49         O60   1.973       .  S
Zn50         O52   1.969       .  S
Zn50         O55   2.017       .  S
Zn50         O58   2.061       .  S
Zn50         O61   2.036       .  S
Zn51         O52   1.969       .  S
Zn51         O59   2.015       .  S
Zn51         O62   2.058       .  S
Zn51         O63   2.021       .  S
O53          C65   1.276       .  A
O54          C66   1.268       .  A
O55          C67   1.276       .  A
O56          C65   1.268       .  A
O57          C67   1.275       .  A
O58          C66   1.278       .  A
O59          C68   1.275       .  A
O60          C69   1.268       .  A
O61          C68   1.276       .  A
O62          C69   1.277       .  A
O63          C70   1.274       .  A
O64          C70   1.275       .  A
C65        C1478   1.477       .  S
C66        C1528   1.478       .  S
C67        C1521   1.481       .  S
C68        C1448   1.484       .  S
C69        C1461   1.477       .  S
C70        C1468   1.478       .  S
C71        C1438   1.482       .  S
C71          N72   1.361       .  A
C71          N76   1.358       .  A
N72          C73   1.357       .  A
C73          C79   1.465       .  S
C73          N74   1.357       .  A
N74          C75   1.361       .  A
C75        C1428   1.480       .  S
C75          N76   1.358       .  A
C77        C1408   1.482       .  S
C77          N78   1.361       .  A
C77          N82   1.357       .  A
N78          C79   1.358       .  A
C79          N80   1.358       .  A
N80          C81   1.361       .  A
C81        C1418   1.480       .  S
C81          N82   1.357       .  A
Zn83         O87   1.922       .  S
Zn83         O88   1.976       .  S
Zn83         O92   1.980       .  S
Zn83         O99   1.979       .  S
Zn84         O87   1.965   1_455  S
Zn84         O89   2.014       .  S
Zn84         O91   2.049       .  S
Zn84         O95   2.022       .  S
Zn85         O87   1.962       .  S
Zn85         O90   2.044       .  S
Zn85         O93   2.022   1_655  S
Zn85         O96   2.009       .  S
Zn86         O87   1.965   1_455  S
Zn86         O94   2.029   1_455  S
Zn86         O97   2.010       .  S
Zn86         O98   2.052   1_455  S
O88         C100   1.269   1_655  A
O89         C101   1.275       .  A
O90         C102   1.276       .  A
O91         C100   1.276       .  A
O92         C102   1.269       .  A
O93         C101   1.274       .  A
O94         C103   1.275       .  A
O95         C104   1.275       .  A
O96         C103   1.274       .  A
O97         C104   1.274       .  A
O98         C105   1.277       .  A
O99         C105   1.269       .  A
C100       C1358   1.476       .  S
C101       C1368   1.480       .  S
C102       C1441   1.474       .  S
C103       C1398   1.480       .  S
C104       C1378   1.479       .  S
C105       C1391   1.476       .  S
C106       C1348   1.485       .  S
C106        N107   1.357       .  A
C106        N111   1.363       .  A
N107        C108   1.354       .  A
C108       C1341   1.483       .  S
C108        N109   1.360       .  A
N109        C110   1.361       .  A
C110        C114   1.468       .  S
C110        N111   1.363       .  A
C112       C1328   1.483       .  S
C112        N113   1.362       .  A
C112        N117   1.354       .  A
N113        C114   1.363       .  A
C114        N115   1.362       .  A
N115        C116   1.361       .  A
C116       C1318   1.483       .  S
C116        N117   1.354       .  A
C118       C1298   1.486       .  S
C118        N119   1.361       .  A
C118        N123   1.355       .  A
N119        C120   1.363       .  A
C120        C126   1.468   1_545  S
C120        N121   1.363       .  A
N121        C122   1.362       .  A
C122       C1308   1.487       .  S
C122        N123   1.355       .  A
C124       C1288   1.483       .  S
C124        N125   1.362       .  A
C124        N129   1.358       .  A
N125        C126   1.358       .  A
C126        N127   1.358       .  A
N127        C128   1.361       .  A
C128       C1571   1.480       .  S
C128        N129   1.357       .  A
Zn130       O134   1.965       .  S
Zn130       O135   2.024       .  S
Zn130       O139   2.010       .  S
Zn130       O146   2.057       .  S
Zn131       O134   1.966       .  S
Zn131       O136   2.018       .  S
Zn131       O138   2.015       .  S
Zn131       O142   2.053       .  S
Zn132       O134   1.970       .  S
Zn132       O137   2.031       .  S
Zn132       O140   2.009       .  S
Zn132       O143   2.055       .  S
Zn133       O134   1.919       .  S
Zn133       O141   1.973       .  S
Zn133       O144   1.975       .  S
Zn133       O145   1.969       .  S
O135        C147   1.275       .  A
O136        C148   1.274       .  A
O137        C149   1.275       .  A
O138        C147   1.275       .  A
O139        C149   1.275       .  A
O140        C148   1.274       .  A
O141        C150   1.268       .  A
O142        C151   1.277       .  A
O143        C150   1.277       .  A
O144        C151   1.268       .  A
O145        C152   1.268       .  A
O146        C152   1.277       .  A
C147       C1248   1.480       .  S
C148       C1268   1.476       .  S
C149       C1351   1.482       .  S
C150       C1278   1.477       .  S
C151       C1258   1.476       .  S
C152       C1291   1.475       .  S
Zn153       O157   1.926       .  S
Zn153       O158   1.979       .  S
Zn153       O162   1.976       .  S
Zn153       O169   1.979       .  S
Zn154       O157   1.966       .  S
Zn154       O159   2.029       .  S
Zn154       O161   2.057       .  S
Zn154       O165   2.009       .  S
Zn155       O157   1.968       .  S
Zn155       O160   2.054       .  S
Zn155       O163   2.020       .  S
Zn155       O166   2.029       .  S
Zn156       O157   1.973       .  S
Zn156       O164   2.017       .  S
Zn156       O167   2.036       .  S
Zn156       O168   2.061       .  S
O158        C170   1.269       .  A
O159        C171   1.275       .  A
O160        C172   1.277       .  A
O161        C170   1.277       .  A
O162        C172   1.269       .  A
O163        C171   1.275       .  A
O164        C173   1.275       .  A
O165        C174   1.275       .  A
O166        C173   1.275       .  A
O167        C174   1.276       .  A
O168        C175   1.278       .  A
O169        C175   1.269       .  A
C170       C1228   1.476       .  S
C171       C1311   1.483       .  S
C172       C1238   1.478       .  S
C173       C1551   1.482       .  S
C174       C1211   1.483       .  S
C175       C1218   1.481       .  S
C176       C1188   1.483       .  S
C176        N177   1.361       .  A
C176        N181   1.355       .  A
N177        C178   1.360       .  A
C178        C184   1.468       .  S
C178        N179   1.361       .  A
N179        C180   1.362       .  A
C180       C1198   1.484       .  S
C180        N181   1.357       .  A
C182       C1178   1.486       .  S
C182        N183   1.363       .  A
C182        N187   1.360       .  A
N183        C184   1.359       .  A
C184        N185   1.357       .  A
N185        C186   1.361       .  A
C186       C1168   1.485       .  S
C186        N187   1.359       .  A
Zn188       O192   1.966       .  S
Zn188       O193   2.059       .  S
Zn188       O197   2.010       .  S
Zn188       O204   2.022   1_545  S
Zn189       O192   1.916       .  S
Zn189       O194   1.961       .  S
Zn189       O196   1.969       .  S
Zn189       O200   1.970       .  S
Zn190       O192   1.971   1_565  S
Zn190       O195   2.034   1_565  S
Zn190       O198   2.058   1_565  S
Zn190       O201   2.011       .  S
Zn191       O192   1.965   1_565  S
Zn191       O199   2.020       .  S
Zn191       O202   2.055       .  S
Zn191       O203   2.010       .  S
O193        C205   1.277       .  A
O194        C206   1.267       .  A
O195        C207   1.275       .  A
O196        C205   1.268       .  A
O197        C207   1.275       .  A
O198        C206   1.277       .  A
O199        C208   1.274       .  A
O200        C209   1.268   1_545  A
O201        C208   1.274       .  A
O202        C209   1.276       .  A
O203        C210   1.275       .  A
O204        C210   1.274       .  A
C205       C1158   1.477       .  S
C206       C1501   1.477       .  S
C207       C1138   1.482       .  S
C208       C1201   1.477       .  S
C209       C1148   1.479       .  S
C210       C1128   1.479       .  S
C211       C1108   1.481       .  S
C211        N212   1.359       .  A
C211        N216   1.354       .  A
N212        C213   1.358       .  A
C213        C221   1.467       .  S
C213        N214   1.362       .  A
N214        C215   1.364       .  A
C215       C1118   1.485       .  S
C215        N216   1.357       .  A
C217       C1241   1.482       .  S
C217        N218   1.354       .  A
C217        N222   1.360       .  A
N218        C219   1.357       .  A
C219       C1381   1.482       .  S
C219        N220   1.363       .  A
N220        C221   1.361       .  A
C221        N222   1.359       .  A
C223       C1471   1.484       .  S
C223        N224   1.362       .  A
C223        N228   1.353       .  A
N224        C225   1.363       .  A
C225        C231   1.467       .  S
C225        N226   1.363       .  A
N226        C227   1.361       .  A
C227       C1098   1.483       .  S
C227        N228   1.353       .  A
C229       C1161   1.482       .  S
C229        N230   1.361       .  A
C229        N234   1.358       .  A
N230        C231   1.358       .  A
C231        N232   1.358       .  A
N232        C233   1.362       .  A
C233       C1231   1.485       .  S
C233        N234   1.358       .  A
C235       C1078   1.482       .  S
C235        N236   1.362       .  A
C235        N240   1.359       .  A
N236        C237   1.358       .  A
C237        C243   1.463       .  S
C237        N238   1.356       .  A
N238        C239   1.359       .  A
C239       C1088   1.479       .  S
C239        N240   1.358       .  A
C241       C1068   1.481       .  S
C241        N242   1.360       .  A
C241        N246   1.358       .  A
N242        C243   1.356       .  A
C243        N244   1.357       .  A
N244        C245   1.361       .  A
C245       C1058   1.481       .  S
C245        N246   1.359       .  A
Zn247       O251   1.923       .  S
Zn247       O252   1.984       .  S
Zn247       O256   1.975       .  S
Zn247       O263   1.974       .  S
Zn248       O251   1.964       .  S
Zn248       O253   2.011       .  S
Zn248       O255   2.056       .  S
Zn248       O259   2.027       .  S
Zn249       O251   1.970       .  S
Zn249       O254   2.054       .  S
Zn249       O257   2.027       .  S
Zn249       O260   2.011       .  S
Zn250       O251   1.968       .  S
Zn250       O258   2.022       .  S
Zn250       O261   2.016       .  S
Zn250       O262   2.051       .  S
O252        C264   1.269       .  A
O253        C265   1.275       .  A
O254        C266   1.277       .  A
O255        C264   1.277       .  A
O256        C266   1.268       .  A
O257        C265   1.275       .  A
O258        C267   1.274       .  A
O259        C268   1.275       .  A
O260        C267   1.275       .  A
O261        C268   1.275       .  A
O262        C269   1.276       .  A
O263        C269   1.269       .  A
C264       C1181   1.478       .  S
C265       C1048   1.480       .  S
C266       C1421   1.478       .  S
C267       C1101   1.478       .  S
C268       C1121   1.482       .  S
C269       C1071   1.476       .  S
C270       C1208   1.485       .  S
C270        N271   1.363       .  A
C270        N275   1.355       .  A
N271        C272   1.365       .  A
C272        C278   1.471   1_554  S
C272        N273   1.363       .  A
N273        C274   1.361       .  A
C274       C1038   1.485       .  S
C274        N275   1.353       .  A
C276       C1561   1.484       .  S
C276        N277   1.362       .  A
C276        N281   1.354       .  A
N277        C278   1.361       .  A
C278        N279   1.362       .  A
N279        C280   1.363       .  A
C280       C1028   1.485       .  S
C280        N281   1.356       .  A
C282       C1018   1.480       .  S
C282        N283   1.356       .  A
C282        N287   1.361       .  A
N283        C284   1.357       .  A
C284       C1008   1.480       .  S
C284        N285   1.361       .  A
N285        C286   1.358       .  A
C286        C290   1.466       .  S
C286        N287   1.358       .  A
C288       C1371   1.483       .  S
C288        N289   1.362       .  A
C288        N293   1.354       .  A
N289        C290   1.363       .  A
C290        N291   1.361       .  A
N291        C292   1.360       .  A
C292        C998   1.481       .  S
C292        N293   1.353       .  A
Zn294       O298   1.966       .  S
Zn294       O299   2.009       .  S
Zn294       O303   2.024       .  S
Zn294       O310   2.051       .  S
Zn295       O298   1.967       .  S
Zn295       O300   2.014       .  S
Zn295       O302   2.027       .  S
Zn295       O306   2.059       .  S
Zn296       O298   1.967       .  S
Zn296       O301   2.010       .  S
Zn296       O304   2.025       .  S
Zn296       O307   2.056       .  S
Zn297       O298   1.917       .  S
Zn297       O305   1.969       .  S
Zn297       O308   1.974       .  S
Zn297       O309   1.971       .  S
O299        C311   1.274       .  A
O300        C312   1.275       .  A
O301        C313   1.274       .  A
O302        C311   1.275       .  A
O303        C313   1.274       .  A
O304        C312   1.275       .  A
O305        C314   1.268       .  A
O306        C315   1.277       .  A
O307        C314   1.277       .  A
O308        C315   1.268       .  A
O309        C316   1.268       .  A
O310        C316   1.277       .  A
C311        C978   1.481       .  S
C312       C1031   1.481       .  S
C313        C988   1.479       .  S
C314       C1021   1.477       .  S
C315        C968   1.479       .  S
C316       C1111   1.476       .  S
Zn317       O321   1.966   1_556  S
Zn317       O322   2.014       .  S
Zn317       O326   2.032   1_566  S
Zn317       O333   2.060   1_556  S
Zn318       O321   1.967   1_546  S
Zn318       O323   2.008       .  S
Zn318       O325   2.034   1_545  S
Zn318       O329   2.057   1_545  S
Zn319       O321   1.968   1_545  S
Zn319       O324   2.015       .  S
Zn319       O327   2.029   1_554  S
Zn319       O330   2.053       .  S
Zn320       O321   1.922       .  S
Zn320       O328   1.978       .  S
Zn320       O331   1.979       .  S
Zn320       O332   1.977       .  S
O322        C334   1.275       .  A
O323        C335   1.274       .  A
O324        C336   1.275       .  A
O325        C334   1.276       .  A
O326        C336   1.276       .  A
O327        C335   1.275       .  A
O328        C337   1.269   1_565  A
O329        C338   1.278       .  A
O330        C337   1.277       .  A
O331        C338   1.269   1_554  A
O332        C339   1.269       .  A
O333        C339   1.278       .  A
C334        C948   1.483       .  S
C335        C958   1.479       .  S
C336       C1041   1.482       .  S
C337        C928   1.477       .  S
C338        C938   1.481       .  S
C339       C1338   1.480       .  S
C340       C1388   1.482       .  S
C340        N341   1.362       .  A
C340        N345   1.359       .  A
N341        C342   1.358       .  A
C342        C348   1.468       .  S
C342        N343   1.358       .  A
N343        C344   1.362       .  A
C344       C1481   1.484       .  S
C344        N345   1.358       .  A
C346        C908   1.485       .  S
C346        N347   1.363       .  A
C346        N351   1.356       .  A
N347        C348   1.363       .  A
C348        N349   1.360       .  A
N349        C350   1.360       .  A
C350        C918   1.483       .  S
C350        N351   1.354       .  A
C352       C1451   1.485       .  S
C352        N353   1.357       .  A
C352        N357   1.363       .  A
N353        C354   1.355       .  A
C354        C931   1.483       .  S
C354        N355   1.360       .  A
N355        C356   1.359       .  A
C356        C360   1.468   1_545  S
C356        N357   1.362       .  A
C358       C1151   1.481       .  S
C358        N359   1.359       .  A
C358        N363   1.356       .  A
N359        C360   1.358       .  A
C360        N361   1.361       .  A
N361        C362   1.364       .  A
C362        C898   1.485       .  S
C362        N363   1.359       .  A
C364       C1261   1.483       .  S
C364        N365   1.357       .  A
C364        N369   1.362       .  A
N365        C366   1.357       .  A
C366       C1361   1.481       .  S
C366        N367   1.361       .  A
N367        C368   1.358       .  A
C368        C372   1.467   1_455  S
C368        N369   1.359       .  A
C370        C888   1.483       .  S
C370        N371   1.360       .  A
C370        N375   1.356       .  A
N371        C372   1.359       .  A
C372        N373   1.361       .  A
N373        C374   1.362       .  A
C374        C878   1.485       .  S
C374        N375   1.358       .  A
C376       C1591   1.486       .  S
C376        N377   1.361       .  A
C376        N381   1.354       .  A
N377        C378   1.363       .  A
C378        C384   1.471   1_554  S
C378        N379   1.365       .  A
N379        C380   1.363       .  A
C380        C868   1.487       .  S
C380        N381   1.355       .  A
C382        C941   1.483       .  S
C382        N383   1.362       .  A
C382        N387   1.354       .  A
N383        C384   1.361       .  A
C384        N385   1.363       .  A
N385        C386   1.363       .  A
C386        C858   1.484       .  S
C386        N387   1.356       .  A
Zn388       O392   1.924       .  S
Zn388       O393   1.974       .  S
Zn388       O397   1.977       .  S
Zn388       O404   1.975       .  S
Zn389       O392   1.966       .  S
Zn389       O394   2.011       .  S
Zn389       O396   2.051       .  S
Zn389       O400   2.018       .  S
Zn390       O392   1.967       .  S
Zn390       O395   2.059       .  S
Zn390       O398   2.034       .  S
Zn390       O401   2.020       .  S
Zn391       O392   1.968       .  S
Zn391       O399   2.035       .  S
Zn391       O402   2.017       .  S
Zn391       O403   2.058       .  S
O393        C405   1.268       .  A
O394        C406   1.274       .  A
O395        C407   1.278       .  A
O396        C405   1.276       .  A
O397        C407   1.269       .  A
O398        C406   1.276       .  A
O399        C408   1.276       .  A
O400        C409   1.274       .  A
O401        C408   1.276       .  A
O402        C409   1.275       .  A
O403        C410   1.278       .  A
O404        C410   1.268       .  A
C405       C1411   1.474       .  S
C406        C901   1.482       .  S
C407        C891   1.480       .  S
C408        C871   1.484       .  S
C409       C1331   1.479       .  S
C410        C921   1.478       .  S
C411       C1051   1.483       .  S
C411        N412   1.362       .  A
C411        N416   1.353       .  A
N412        C413   1.363       .  A
C413        C421   1.467       .  S
C413        N414   1.362       .  A
N414        C415   1.360       .  A
C415       C1271   1.483       .  S
C415        N416   1.353       .  A
C417        C848   1.485       .  S
C417        N418   1.357       .  A
C417        N422   1.362       .  A
N418        C419   1.355       .  A
C419       C1221   1.482       .  S
C419        N420   1.360       .  A
N420        C421   1.360       .  A
C421        N422   1.361       .  A
Zn423       O427   1.925       .  S
Zn423       O428   1.980       .  S
Zn423       O432   1.984       .  S
Zn423       O439   1.976       .  S
Zn424       O427   1.968   1_554  S
Zn424       O429   2.012       .  S
Zn424       O431   2.052   1_554  S
Zn424       O435   2.037   1_554  S
Zn425       O427   1.965   1_554  S
Zn425       O430   2.056       .  S
Zn425       O433   2.028       .  S
Zn425       O436   2.008       .  S
Zn426       O427   1.968       .  S
Zn426       O434   2.025   1_556  S
Zn426       O437   2.011       .  S
Zn426       O438   2.049       .  S
O428        C440   1.269       .  A
O429        C441   1.275       .  A
O430        C442   1.277       .  A
O431        C440   1.277       .  A
O432        C442   1.269   1_556  A
O433        C441   1.275       .  A
O434        C443   1.274       .  A
O435        C444   1.276       .  A
O436        C443   1.274       .  A
O437        C444   1.274       .  A
O438        C445   1.276       .  A
O439        C445   1.269       .  A
C440        C841   1.478       .  S
C441        C851   1.480       .  S
C442        C828   1.480       .  S
C443       C1321   1.478       .  S
C444        C818   1.482       .  S
C445       C1091   1.476       .  S
Zn446       O450   1.970   1_455  S
Zn446       O451   2.030   1_545  S
Zn446       O455   2.064       .  S
Zn446       O462   2.014       .  S
Zn447       O450   1.966   1_465  S
Zn447       O452   2.060   1_455  S
Zn447       O454   2.010       .  S
Zn447       O458   2.031   1_455  S
Zn448       O450   1.924       .  S
Zn448       O453   1.977       .  S
Zn448       O456   1.981       .  S
Zn448       O459   1.972       .  S
Zn449       O450   1.971   1_565  S
Zn449       O457   2.053   1_565  S
Zn449       O460   2.014       .  S
Zn449       O461   2.037   1_665  S
O451        C463   1.275       .  A
O452        C464   1.278       .  A
O453        C465   1.268   1_655  A
O454        C463   1.275       .  A
O455        C465   1.278       .  A
O456        C464   1.269   1_545  A
O457        C466   1.278       .  A
O458        C467   1.275       .  A
O459        C466   1.269       .  A
O460        C467   1.274       .  A
O461        C468   1.276       .  A
O462        C468   1.275       .  A
C463        C798   1.482       .  S
C464        C808   1.480       .  S
C465        C791   1.480       .  S
C466       C1511   1.477       .  S
C467        C881   1.482       .  S
C468       C1301   1.483       .  S
C469       C1281   1.481       .  S
C469        N470   1.353       .  A
C469        N474   1.359       .  A
N470        C471   1.357       .  A
C471       C1131   1.483       .  S
C471        N472   1.363       .  A
N472        C473   1.362       .  A
C473        C479   1.466       .  S
C473        N474   1.359       .  A
C475        C801   1.484       .  S
C475        N476   1.357       .  A
C475        N480   1.363       .  A
N476        C477   1.354       .  A
C477        C778   1.482       .  S
C477        N478   1.358       .  A
N478        C479   1.358       .  A
C479        N480   1.362       .  A
C481        C838   1.482       .  S
C481        N482   1.355       .  A
C481        N486   1.361       .  A
N482        C483   1.356       .  A
C483        C991   1.483       .  S
C483        N484   1.361       .  A
N484        C485   1.361       .  A
C485        C489   1.467       .  S
C485        N486   1.360       .  A
C487        C961   1.483       .  S
C487        N488   1.361       .  A
C487        N492   1.356       .  A
N488        C489   1.360       .  A
C489        N490   1.360       .  A
N490        C491   1.361       .  A
C491        C768   1.482       .  S
C491        N492   1.355       .  A
C493        C788   1.484       .  S
C493        N494   1.362       .  A
C493        N498   1.358       .  A
N494        C495   1.359       .  A
C495        C501   1.468   1_455  S
C495        N496   1.358       .  A
N496        C497   1.361       .  A
C497        C971   1.482       .  S
C497        N498   1.358       .  A
C499       C1401   1.484       .  S
C499        N500   1.361       .  A
C499        N504   1.355       .  A
N500        C501   1.362       .  A
C501        N502   1.362       .  A
N502        C503   1.362       .  A
C503        C758   1.485       .  S
C503        N504   1.355       .  A
C505        C831   1.484       .  S
C505        N506   1.358       .  A
C505        N510   1.363       .  A
N506        C507   1.357       .  A
C507       C1458   1.483       .  S
C507        N508   1.361       .  A
N508        C509   1.358       .  A
C509        C513   1.469   1_554  S
C509        N510   1.360       .  A
C511        C738   1.486       .  S
C511        N512   1.363       .  A
C511        N516   1.358       .  A
N512        C513   1.362       .  A
C513        N514   1.359       .  A
N514        C515   1.360       .  A
C515        C748   1.484       .  S
C515        N516   1.356       .  A
Zn517       O521   1.926       .  S
Zn517       O522   1.983       .  S
Zn517       O526   1.982       .  S
Zn517       O533   1.984       .  S
Zn518       O521   1.962       .  S
Zn518       O523   2.012       .  S
Zn518       O525   2.039       .  S
Zn518       O529   2.015       .  S
Zn519       O521   1.962       .  S
Zn519       O524   2.051       .  S
Zn519       O527   2.030       .  S
Zn519       O530   2.009       .  S
Zn520       O521   1.968       .  S
Zn520       O528   2.028       .  S
Zn520       O531   2.006       .  S
Zn520       O532   2.048       .  S
O522        C534   1.269       .  A
O523        C535   1.274       .  A
O524        C536   1.277       .  A
O525        C534   1.275       .  A
O526        C536   1.269       .  A
O527        C535   1.275       .  A
O528        C537   1.275       .  A
O529        C538   1.273       .  A
O530        C537   1.275       .  A
O531        C538   1.274       .  A
O532        C539   1.277       .  A
O533        C539   1.269       .  A
C534       C1061   1.472       .  S
C535        C761   1.482       .  S
C536        C751   1.477       .  S
C537        C728   1.480       .  S
C538       C1491   1.476       .  S
C539        C771   1.478       .  S
C540       C1611   1.483       .  S
C540        N541   1.360       .  A
C540        N545   1.352       .  A
N541        C542   1.363       .  A
C542        C548   1.470   1_455  S
C542        N543   1.365       .  A
N543        C544   1.363       .  A
C544        C718   1.486       .  S
C544        N545   1.353       .  A
C546        C708   1.484       .  S
C546        N547   1.363       .  A
C546        N551   1.356       .  A
N547        C548   1.363       .  A
C548        N549   1.361       .  A
N549        C550   1.361       .  A
C550        C698   1.484       .  S
C550        N551   1.354       .  A
C552        C731   1.484       .  S
C552        N553   1.363       .  A
C552        N557   1.353       .  A
N553        C554   1.365       .  A
C554        C560   1.470   1_545  S
C554        N555   1.364       .  A
N555        C556   1.361       .  A
C556       C1601   1.484       .  S
C556        N557   1.352       .  A
C558        C688   1.487       .  S
C558        N559   1.363       .  A
C558        N563   1.358       .  A
N559        C560   1.362       .  A
C560        N561   1.360       .  A
N561        C562   1.362       .  A
C562        C811   1.486       .  S
C562        N563   1.356       .  A
Zn564       O568   1.920       .  S
Zn564       O569   1.973       .  S
Zn564       O573   1.973       .  S
Zn564       O580   1.979       .  S
Zn565       O568   1.969       .  S
Zn565       O570   2.016       .  S
Zn565       O572   2.057       .  S
Zn565       O576   2.024       .  S
Zn566       O568   1.969       .  S
Zn566       O571   2.048       .  S
Zn566       O574   2.026       .  S
Zn566       O577   2.011       .  S
Zn567       O568   1.968       .  S
Zn567       O575   2.033       .  S
Zn567       O578   2.011       .  S
Zn567       O579   2.066       .  S
O569        C581   1.268       .  A
O570        C582   1.275       .  A
O571        C583   1.276       .  A
O572        C581   1.277       .  A
O573        C583   1.269       .  A
O574        C582   1.275       .  A
O575        C584   1.276       .  A
O576        C585   1.275       .  A
O577        C584   1.274       .  A
O578        C585   1.275       .  A
O579        C586   1.278       .  A
O580        C586   1.269       .  A
C581       C1081   1.477       .  S
C582        C711   1.483       .  S
C583       C1431   1.476       .  S
C584        C691   1.480       .  S
C585        C861   1.480       .  S
C586       C1191   1.482       .  S
Zn587       O591   1.967   1_654  S
Zn587       O592   2.032   1_554  S
Zn587       O596   2.061   1_554  S
Zn587       O603   2.015       .  S
Zn588       O591   1.970   1_655  S
Zn588       O593   2.053   1_655  S
Zn588       O595   2.017       .  S
Zn588       O599   2.028   1_656  S
Zn589       O591   1.922       .  S
Zn589       O594   1.973       .  S
Zn589       O597   1.968       .  S
Zn589       O600   1.977       .  S
Zn590       O591   1.969   1_554  S
Zn590       O598   2.064       .  S
Zn590       O601   2.016       .  S
Zn590       O602   2.029   1_455  S
O592        C604   1.276       .  A
O593        C605   1.277       .  A
O594        C606   1.268   1_455  A
O595        C604   1.275       .  A
O596        C606   1.278       .  A
O597        C605   1.268       .  A
O598        C607   1.278       .  A
O599        C608   1.275       .  A
O600        C607   1.268   1_556  A
O601        C608   1.275       .  A
O602        C609   1.275       .  A
O603        C609   1.275       .  A
C604        C741   1.483       .  S
C605       C1011   1.474       .  S
C606        C701   1.480       .  S
C607        C678   1.481       .  S
C608       C1541   1.481       .  S
C609        C911   1.481       .  S
C610        C981   1.481       .  S
C610        N611   1.352       .  A
C610        N615   1.360       .  A
N611        C612   1.354       .  A
C612       C1141   1.485       .  S
C612        N613   1.363       .  A
N613        C614   1.365       .  A
C614        C618   1.468   1_545  S
C614        N615   1.362       .  A
C616        C951   1.486       .  S
C616        N617   1.363       .  A
C616        N621   1.358       .  A
N617        C618   1.362       .  A
C618        N619   1.359       .  A
N619        C620   1.360       .  A
C620        C668   1.482       .  S
C620        N621   1.356       .  A
C622       C1251   1.486       .  S
C622        N623   1.358       .  A
C622        N627   1.363       .  A
N623        C624   1.355       .  A
C624        C681   1.484       .  S
C624        N625   1.361       .  A
N625        C626   1.360       .  A
C626        C630   1.469   1_554  S
C626        N627   1.362       .  A
C628        C821   1.486       .  S
C628        N629   1.361       .  A
C628        N633   1.355       .  A
N629        C630   1.363       .  A
C630        N631   1.363       .  A
N631        C632   1.362       .  A
C632        C658   1.486       .  S
C632        N633   1.355       .  A
Zn634       O638   1.966       .  S
Zn634       O639   2.051       .  S
Zn634       O643   2.034       .  S
Zn634       O650   2.016       .  S
Zn635       O638   1.926       .  S
Zn635       O640   1.987       .  S
Zn635       O642   1.979       .  S
Zn635       O646   1.982       .  S
Zn636       O638   1.963       .  S
Zn636       O641   2.013       .  S
Zn636       O644   2.051       .  S
Zn636       O647   2.020       .  S
Zn637       O638   1.966       .  S
Zn637       O645   2.004       .  S
Zn637       O648   2.043       .  S
Zn637       O649   2.023       .  S
O639        C651   1.277       .  A
O640        C652   1.270       .  A
O641        C653   1.275       .  A
O642        C651   1.269       .  A
O643        C653   1.276       .  A
O644        C652   1.276       .  A
O645        C654   1.274       .  A
O646        C655   1.269       .  A
O647        C654   1.274       .  A
O648        C655   1.276       .  A
O649        C656   1.274       .  A
O650        C656   1.275       .  A
C651        C671   1.477       .  S
C652       C1171   1.477       .  S
C653        C661   1.483       .  S
C654       C1001   1.477       .  S
C655        C781   1.475       .  S
C656        C721   1.479       .  S
C657        C658   1.406       .  A
C657        C662   1.405       .  A
C657        H663   1.083       .  S
C658        C659   1.407       .  A
C659        C660   1.394       .  A
C659        H664   1.083       .  S
C660        C661   1.403       .  A
C660        H665   1.083       .  S
C661        C662   1.408       .  A
C662        H666   1.083       .  S
C667        C668   1.410       .  A
C667        C672   1.400       .  A
C667        H673   1.083       .  S
C668        C669   1.403       .  A
C669        C670   1.396       .  A
C669        H674   1.083       .  S
C670        C671   1.406       .  A
C670        H675   1.083       .  S
C671        C672   1.402       .  A
C672        H676   1.083       .  S
C677        C678   1.408   1_556  A
C677        C682   1.397   1_556  A
C677        H683   1.083       .  S
C678        C679   1.403       .  A
C679        C680   1.402       .  A
C679        H684   1.083       .  S
C680        C681   1.410       .  A
C680        H685   1.083       .  S
C681        C682   1.403       .  A
C682        H686   1.083   1_554  S
C687        C688   1.408       .  A
C687        C692   1.396       .  A
C687        H693   1.083       .  S
C688        C689   1.407       .  A
C689        C690   1.403       .  A
C689        H694   1.083       .  S
C690        C691   1.407       .  A
C690        H695   1.083       .  S
C691        C692   1.403       .  A
C692        H696   1.083       .  S
C697        C698   1.402       .  A
C697        C702   1.396   1_655  A
C697        H703   1.083   1_655  S
C698        C699   1.410       .  A
C699        C700   1.401       .  A
C699        H704   1.083       .  S
C700        C701   1.402       .  A
C700        H705   1.083       .  S
C701        C702   1.408   1_655  A
C702        H706   1.083       .  S
C707        C708   1.407       .  A
C707        C712   1.395       .  A
C707        H713   1.083       .  S
C708        C709   1.405       .  A
C709        C710   1.403       .  A
C709        H714   1.083       .  S
C710        C711   1.409       .  A
C710        H715   1.083       .  S
C711        C712   1.404       .  A
C712        H716   1.083       .  S
C717        C718   1.409       .  A
C717        C722   1.392       .  A
C717        H723   1.083       .  S
C718        C719   1.406       .  A
C719        C720   1.405       .  A
C719        H724   1.083       .  S
C720        C721   1.408       .  A
C720        H725   1.083       .  S
C721        C722   1.400       .  A
C722        H726   1.083       .  S
C727        C728   1.401       .  A
C727        C732   1.391       .  A
C727        H733   1.083       .  S
C728        C729   1.409       .  A
C729        C730   1.405       .  A
C729        H734   1.083       .  S
C730        C731   1.406       .  A
C730        H735   1.083       .  S
C731        C732   1.407       .  A
C732        H736   1.083       .  S
C737        C738   1.406       .  A
C737        C742   1.402       .  A
C737        H743   1.083   1_556  S
C738        C739   1.408       .  A
C739        C740   1.397       .  A
C739        H744   1.083       .  S
C740        C741   1.404       .  A
C740        H745   1.083       .  S
C741        C742   1.407       .  A
C742        H746   1.083   1_556  S
C747        C748   1.410       .  A
C747        C752   1.400       .  A
C747        H753   1.083       .  S
C748        C749   1.404       .  A
C749        C750   1.396       .  A
C749        H754   1.083       .  S
C750        C751   1.406       .  A
C750        H755   1.083       .  S
C751        C752   1.402       .  A
C752        H756   1.083       .  S
C757        C758   1.406       .  A
C757        C762   1.403       .  A
C757        H763   1.083       .  S
C758        C759   1.407       .  A
C759        C760   1.395       .  A
C759        H764   1.083       .  S
C760        C761   1.403       .  A
C760        H765   1.083       .  S
C761        C762   1.408       .  A
C762        H766   1.083       .  S
C767        C768   1.409       .  A
C767        C772   1.400       .  A
C767        H773   1.083       .  S
C768        C769   1.403       .  A
C769        C770   1.397       .  A
C769        H774   1.083       .  S
C770        C771   1.407       .  A
C770        H775   1.083       .  S
C771        C772   1.402       .  A
C772        H776   1.083       .  S
C777        C778   1.409       .  A
C777        C782   1.400       .  A
C777        H783   1.083       .  S
C778        C779   1.404       .  A
C779        C780   1.395       .  A
C779        H784   1.083       .  S
C780        C781   1.405       .  A
C780        H785   1.083       .  S
C781        C782   1.402       .  A
C782        H786   1.083       .  S
C787        C788   1.403       .  A
C787        C792   1.396   1_455  A
C787        H793   1.083   1_455  S
C788        C789   1.410       .  A
C789        C790   1.403       .  A
C789        H794   1.083       .  S
C790        C791   1.403       .  A
C790        H795   1.083       .  S
C791        C792   1.407   1_455  A
C792        H796   1.083       .  S
C797        C798   1.403       .  A
C797        C802   1.393       .  A
C797        H803   1.083       .  S
C798        C799   1.408       .  A
C799        C800   1.404       .  A
C799        H804   1.083       .  S
C800        C801   1.406       .  A
C800        H805   1.083       .  S
C801        C802   1.406       .  A
C802        H806   1.083       .  S
C807        C808   1.407       .  A
C807        C812   1.398       .  A
C807        H813   1.083   1_565  S
C808        C809   1.402       .  A
C809        C810   1.401       .  A
C809        H814   1.083       .  S
C810        C811   1.411       .  A
C810        H815   1.083       .  S
C811        C812   1.404       .  A
C812        H816   1.083   1_565  S
C817        C818   1.408       .  A
C817        C822   1.405       .  A
C817        H823   1.083   1_556  S
C818        C819   1.403       .  A
C819        C820   1.394       .  A
C819        H824   1.083       .  S
C820        C821   1.407       .  A
C820        H825   1.083       .  S
C821        C822   1.407       .  A
C822        H826   1.083   1_556  S
C827        C828   1.407   1_556  A
C827        C832   1.397   1_556  A
C827        H833   1.083       .  S
C828        C829   1.403       .  A
C829        C830   1.402       .  A
C829        H834   1.083       .  S
C830        C831   1.410       .  A
C830        H835   1.083       .  S
C831        C832   1.403       .  A
C832        H836   1.083   1_554  S
C837        C838   1.410       .  A
C837        C842   1.399       .  A
C837        H843   1.083       .  S
C838        C839   1.403       .  A
C839        C840   1.397       .  A
C839        H844   1.083       .  S
C840        C841   1.407       .  A
C840        H845   1.083       .  S
C841        C842   1.402       .  A
C842        H846   1.083       .  S
C847        C848   1.407       .  A
C847        C852   1.395       .  A
C847        H853   1.083       .  S
C848        C849   1.406       .  A
C849        C850   1.402       .  A
C849        H854   1.083       .  S
C850        C851   1.407       .  A
C850        H855   1.083       .  S
C851        C852   1.403       .  A
C852        H856   1.083       .  S
C857        C858   1.407       .  A
C857        C862   1.394       .  A
C857        H863   1.083       .  S
C858        C859   1.405       .  A
C859        C860   1.403       .  A
C859        H864   1.083       .  S
C860        C861   1.408       .  A
C860        H865   1.083       .  S
C861        C862   1.403       .  A
C862        H866   1.083       .  S
C867        C868   1.408       .  A
C867        C872   1.395       .  A
C867        H873   1.083       .  S
C868        C869   1.406       .  A
C869        C870   1.405       .  A
C869        H874   1.083       .  S
C870        C871   1.409       .  A
C870        H875   1.083       .  S
C871        C872   1.403       .  A
C872        H876   1.083       .  S
C877        C878   1.406       .  A
C877        C882   1.403       .  A
C877        H883   1.083   1_655  S
C878        C879   1.407       .  A
C879        C880   1.396       .  A
C879        H884   1.083       .  S
C880        C881   1.404       .  A
C880        H885   1.083       .  S
C881        C882   1.407       .  A
C882        H886   1.083   1_655  S
C887        C888   1.409       .  A
C887        C892   1.401       .  A
C887        H893   1.083       .  S
C888        C889   1.403       .  A
C889        C890   1.397       .  A
C889        H894   1.083       .  S
C890        C891   1.408       .  A
C890        H895   1.083       .  S
C891        C892   1.402       .  A
C892        H896   1.083       .  S
C897        C898   1.406       .  A
C897        C902   1.403       .  A
C897        H903   1.083       .  S
C898        C899   1.407       .  A
C899        C900   1.395       .  A
C899        H904   1.083       .  S
C900        C901   1.404       .  A
C900        H905   1.083       .  S
C901        C902   1.407       .  A
C902        H906   1.083       .  S
C907        C908   1.408       .  A
C907        C912   1.394       .  A
C907        H913   1.083       .  S
C908        C909   1.406       .  A
C909        C910   1.403       .  A
C909        H914   1.083       .  S
C910        C911   1.408       .  A
C910        H915   1.083       .  S
C911        C912   1.402       .  A
C912        H916   1.083       .  S
C917        C918   1.410       .  A
C917        C922   1.400       .  A
C917        H923   1.083       .  S
C918        C919   1.403       .  A
C919        C920   1.397       .  A
C919        H924   1.083       .  S
C920        C921   1.408       .  A
C920        H925   1.083       .  S
C921        C922   1.401       .  A
C922        H926   1.083       .  S
C927        C928   1.402       .  A
C927        C932   1.400       .  A
C927        H933   1.083       .  S
C928        C929   1.407   1_545  A
C929        C930   1.397       .  A
C929        H934   1.083       .  S
C930        C931   1.404   1_565  A
C930        H935   1.083       .  S
C931        C932   1.410       .  A
C932        H936   1.083       .  S
C937        C938   1.402       .  A
C937        C942   1.401       .  A
C937        H943   1.083       .  S
C938        C939   1.408   1_556  A
C939        C940   1.397   1_554  A
C939        H944   1.083       .  S
C940        C941   1.402       .  A
C940        H945   1.083   1_556  S
C941        C942   1.411       .  A
C942        H946   1.083       .  S
C947        C948   1.404       .  A
C947        C952   1.396       .  A
C947        H953   1.083       .  S
C948        C949   1.408       .  A
C949        C950   1.403       .  A
C949        H954   1.083   1_565  S
C950        C951   1.406       .  A
C950        H955   1.083       .  S
C951        C952   1.407       .  A
C952        H956   1.083       .  S
C957        C958   1.406       .  A
C957        C962   1.401       .  A
C957        H963   1.083       .  S
C958        C959   1.403       .  A
C959        C960   1.395       .  A
C959        H964   1.083       .  S
C960        C961   1.407       .  A
C960        H965   1.083       .  S
C961        C962   1.406       .  A
C962        H966   1.083       .  S
C967        C968   1.403       .  A
C967        C972   1.402       .  A
C967        H973   1.083       .  S
C968        C969   1.407       .  A
C969        C970   1.395       .  A
C969        H974   1.083       .  S
C970        C971   1.403       .  A
C970        H975   1.083       .  S
C971        C972   1.409       .  A
C972        H976   1.083       .  S
C977        C978   1.408       .  A
C977        C982   1.403       .  A
C977        H983   1.083       .  S
C978        C979   1.403       .  A
C979        C980   1.394       .  A
C979        H984   1.083       .  S
C980        C981   1.406       .  A
C980        H985   1.083       .  S
C981        C982   1.405       .  A
C982        H986   1.083       .  S
C987        C988   1.403       .  A
C987        C992   1.394       .  A
C987        H993   1.083       .  S
C988        C989   1.407       .  A
C989        C990   1.402       .  A
C989        H994   1.083       .  S
C990        C991   1.406       .  A
C990        H995   1.083       .  S
C991        C992   1.407       .  A
C992        H996   1.083       .  S
C997        C998   1.407       .  A
C997       C1002   1.392       .  A
C997       H1003   1.083       .  S
C998        C999   1.405       .  A
C999       C1000   1.402       .  A
C999       H1004   1.083       .  S
C1000      C1001   1.407       .  A
C1000      H1005   1.083       .  S
C1001      C1002   1.402       .  A
C1002      H1006   1.083       .  S
C1007      C1008   1.403       .  A
C1007      C1012   1.394       .  A
C1007      H1013   1.083       .  S
C1008      C1009   1.409       .  A
C1009      C1010   1.400       .  A
C1009      H1014   1.083       .  S
C1010      C1011   1.401       .  A
C1010      H1015   1.083       .  S
C1011      C1012   1.406       .  A
C1012      H1016   1.084       .  S
C1017      C1018   1.410       .  A
C1017      C1022   1.402       .  A
C1017      H1023   1.083       .  S
C1018      C1019   1.402       .  A
C1019      C1020   1.393       .  A
C1019      H1024   1.083       .  S
C1020      C1021   1.407       .  A
C1020      H1025   1.083       .  S
C1021      C1022   1.403       .  A
C1022      H1026   1.083       .  S
C1027      C1028   1.408       .  A
C1027      C1032   1.395       .  A
C1027      H1033   1.083       .  S
C1028      C1029   1.406       .  A
C1029      C1030   1.402       .  A
C1029      H1034   1.083       .  S
C1030      C1031   1.407       .  A
C1030      H1035   1.083       .  S
C1031      C1032   1.403       .  A
C1032      H1036   1.083       .  S
C1037      C1038   1.408       .  A
C1037      C1042   1.395       .  A
C1037      H1043   1.083       .  S
C1038      C1039   1.405       .  A
C1039      C1040   1.403       .  A
C1039      H1044   1.083   1_554  S
C1040      C1041   1.408       .  A
C1040      H1045   1.083   1_554  S
C1041      C1042   1.403       .  A
C1042      H1046   1.083       .  S
C1047      C1048   1.408       .  A
C1047      C1052   1.404       .  A
C1047      H1053   1.083       .  S
C1048      C1049   1.402       .  A
C1049      C1050   1.392       .  A
C1049      H1054   1.083       .  S
C1050      C1051   1.407       .  A
C1050      H1055   1.083       .  S
C1051      C1052   1.405       .  A
C1052      H1056   1.083       .  S
C1057      C1058   1.409       .  A
C1057      C1062   1.399       .  A
C1057      H1063   1.083       .  S
C1058      C1059   1.405       .  A
C1059      C1060   1.395       .  A
C1059      H1064   1.083       .  S
C1060      C1061   1.404       .  A
C1060      H1065   1.083       .  S
C1061      C1062   1.402       .  A
C1062      H1066   1.083       .  S
C1067      C1068   1.403       .  A
C1067      C1072   1.393       .  A
C1067      H1073   1.083       .  S
C1068      C1069   1.409       .  A
C1069      C1070   1.402       .  A
C1069      H1074   1.083       .  S
C1070      C1071   1.403       .  A
C1070      H1075   1.083       .  S
C1071      C1072   1.405       .  A
C1072      H1076   1.083       .  S
C1077      C1078   1.403       .  A
C1077      C1082   1.394       .  A
C1077      H1083   1.083       .  S
C1078      C1079   1.410       .  A
C1079      C1080   1.402       .  A
C1079      H1084   1.083       .  S
C1080      C1081   1.403       .  A
C1080      H1085   1.083       .  S
C1081      C1082   1.406       .  A
C1082      H1086   1.083       .  S
C1087      C1088   1.403       .  A
C1087      C1092   1.393       .  A
C1087      H1093   1.083       .  S
C1088      C1089   1.408       .  A
C1089      C1090   1.401       .  A
C1089      H1094   1.083       .  S
C1090      C1091   1.403       .  A
C1090      H1095   1.083       .  S
C1091      C1092   1.406       .  A
C1092      H1096   1.083       .  S
C1097      C1098   1.408       .  A
C1097      C1102   1.393       .  A
C1097      H1103   1.083       .  S
C1098      C1099   1.405       .  A
C1099      C1100   1.402       .  A
C1099      H1104   1.083       .  S
C1100      C1101   1.407       .  A
C1100      H1105   1.083       .  S
C1101      C1102   1.401       .  A
C1102      H1106   1.083       .  S
C1107      C1108   1.403       .  A
C1107      C1112   1.395       .  A
C1107      H1113   1.083       .  S
C1108      C1109   1.410       .  A
C1109      C1110   1.400       .  A
C1109      H1114   1.083       .  S
C1110      C1111   1.401       .  A
C1110      H1115   1.083       .  S
C1111      C1112   1.407       .  A
C1112      H1116   1.083       .  S
C1117      C1118   1.406       .  A
C1117      C1122   1.403       .  A
C1117      H1123   1.083       .  S
C1118      C1119   1.408       .  A
C1119      C1120   1.395       .  A
C1119      H1124   1.083       .  S
C1120      C1121   1.403       .  A
C1120      H1125   1.083       .  S
C1121      C1122   1.408       .  A
C1122      H1126   1.083       .  S
C1127      C1128   1.402       .  A
C1127      C1132   1.393       .  A
C1127      H1133   1.083       .  S
C1128      C1129   1.408       .  A
C1129      C1130   1.403       .  A
C1129      H1134   1.083       .  S
C1130      C1131   1.406       .  A
C1130      H1135   1.083       .  S
C1131      C1132   1.407       .  A
C1132      H1136   1.083       .  S
C1137      C1138   1.402       .  A
C1137      C1142   1.392       .  A
C1137      H1143   1.083       .  S
C1138      C1139   1.409       .  A
C1139      C1140   1.406       .  A
C1139      H1144   1.083   1_545  S
C1140      C1141   1.406       .  A
C1140      H1145   1.083   1_545  S
C1141      C1142   1.407       .  A
C1142      H1146   1.083       .  S
C1147      C1148   1.403       .  A
C1147      C1152   1.402       .  A
C1147      H1153   1.083       .  S
C1148      C1149   1.407   1_565  A
C1149      C1150   1.394   1_545  A
C1149      H1154   1.083       .  S
C1150      C1151   1.402       .  A
C1150      H1155   1.083   1_565  S
C1151      C1152   1.409       .  A
C1152      H1156   1.083       .  S
C1157      C1158   1.402       .  A
C1157      C1162   1.402       .  A
C1157      H1163   1.083       .  S
C1158      C1159   1.406       .  A
C1159      C1160   1.394       .  A
C1159      H1164   1.084       .  S
C1160      C1161   1.403       .  A
C1160      H1165   1.083       .  S
C1161      C1162   1.409       .  A
C1162      H1166   1.083       .  S
C1167      C1168   1.405       .  A
C1167      C1172   1.396       .  A
C1167      H1173   1.083       .  S
C1168      C1169   1.409       .  A
C1169      C1170   1.402       .  A
C1169      H1174   1.083       .  S
C1170      C1171   1.403       .  A
C1170      H1175   1.083       .  S
C1171      C1172   1.405       .  A
C1172      H1176   1.083       .  S
C1177      C1178   1.410       .  A
C1177      C1182   1.402       .  A
C1177      H1183   1.083       .  S
C1178      C1179   1.404       .  A
C1179      C1180   1.397       .  A
C1179      H1184   1.083       .  S
C1180      C1181   1.406       .  A
C1180      H1185   1.083       .  S
C1181      C1182   1.402       .  A
C1182      H1186   1.083       .  S
C1187      C1188   1.402       .  A
C1187      C1192   1.396       .  A
C1187      H1193   1.083       .  S
C1188      C1189   1.410       .  A
C1189      C1190   1.402       .  A
C1189      H1194   1.083       .  S
C1190      C1191   1.403       .  A
C1190      H1195   1.083       .  S
C1191      C1192   1.408       .  A
C1192      H1196   1.083       .  S
C1197      C1198   1.408       .  A
C1197      C1202   1.395       .  A
C1197      H1203   1.083       .  S
C1198      C1199   1.406       .  A
C1199      C1200   1.401       .  A
C1199      H1204   1.083       .  S
C1200      C1201   1.406       .  A
C1200      H1205   1.083       .  S
C1201      C1202   1.402       .  A
C1202      H1206   1.083       .  S
C1207      C1208   1.406       .  A
C1207      C1212   1.406       .  A
C1207      H1213   1.083       .  S
C1208      C1209   1.407       .  A
C1209      C1210   1.392       .  A
C1209      H1214   1.083       .  S
C1210      C1211   1.402       .  A
C1210      H1215   1.083       .  S
C1211      C1212   1.409       .  A
C1212      H1216   1.083       .  S
C1217      C1218   1.408       .  A
C1217      C1222   1.397       .  A
C1217      H1223   1.083       .  S
C1218      C1219   1.403       .  A
C1219      C1220   1.401       .  A
C1219      H1224   1.083       .  S
C1220      C1221   1.409       .  A
C1220      H1225   1.083       .  S
C1221      C1222   1.402       .  A
C1222      H1226   1.083       .  S
C1227      C1228   1.405       .  A
C1227      C1232   1.395       .  A
C1227      H1233   1.084       .  S
C1228      C1229   1.402       .  A
C1229      C1230   1.402       .  A
C1229      H1234   1.083       .  S
C1230      C1231   1.410       .  A
C1230      H1235   1.083       .  S
C1231      C1232   1.404       .  A
C1232      H1236   1.083       .  S
C1237      C1238   1.402       .  A
C1237      C1242   1.400       .  A
C1237      H1243   1.083       .  S
C1238      C1239   1.407       .  A
C1239      C1240   1.396       .  A
C1239      H1244   1.083       .  S
C1240      C1241   1.403       .  A
C1240      H1245   1.083       .  S
C1241      C1242   1.410       .  A
C1242      H1246   1.083       .  S
C1247      C1248   1.402       .  A
C1247      C1252   1.395       .  A
C1247      H1253   1.083       .  S
C1248      C1249   1.407       .  A
C1249      C1250   1.402       .  A
C1249      H1254   1.083       .  S
C1250      C1251   1.406       .  A
C1250      H1255   1.083       .  S
C1251      C1252   1.408       .  A
C1252      H1256   1.083       .  S
C1257      C1258   1.402       .  A
C1257      C1262   1.401       .  A
C1257      H1263   1.083       .  S
C1258      C1259   1.406       .  A
C1259      C1260   1.395       .  A
C1259      H1264   1.083       .  S
C1260      C1261   1.403       .  A
C1260      H1265   1.083       .  S
C1261      C1262   1.410       .  A
C1262      H1266   1.083       .  S
C1267      C1268   1.407       .  A
C1267      C1272   1.401       .  A
C1267      H1273   1.083       .  S
C1268      C1269   1.401       .  A
C1269      C1270   1.393       .  A
C1269      H1274   1.083       .  S
C1270      C1271   1.408       .  A
C1270      H1275   1.083       .  S
C1271      C1272   1.405       .  A
C1272      H1276   1.083       .  S
C1277      C1278   1.407       .  A
C1277      C1282   1.395       .  A
C1277      H1283   1.083       .  S
C1278      C1279   1.402       .  A
C1279      C1280   1.400       .  A
C1279      H1284   1.083       .  S
C1280      C1281   1.410       .  A
C1280      H1285   1.083       .  S
C1281      C1282   1.402       .  A
C1282      H1286   1.083       .  S
C1287      C1288   1.410       .  A
C1287      C1292   1.402       .  A
C1287      H1293   1.083       .  S
C1288      C1289   1.403       .  A
C1289      C1290   1.394       .  A
C1289      H1294   1.083       .  S
C1290      C1291   1.405       .  A
C1290      H1295   1.084       .  S
C1291      C1292   1.402       .  A
C1292      H1296   1.083       .  S
C1297      C1298   1.407       .  A
C1297      C1302   1.405       .  A
C1297      H1303   1.083   1_545  S
C1298      C1299   1.407       .  A
C1299      C1300   1.394       .  A
C1299      H1304   1.083       .  S
C1300      C1301   1.403       .  A
C1300      H1305   1.083       .  S
C1301      C1302   1.409       .  A
C1302      H1306   1.083   1_545  S
C1307      C1308   1.408       .  A
C1307      C1312   1.395       .  A
C1307      H1313   1.083       .  S
C1308      C1309   1.406       .  A
C1309      C1310   1.404       .  A
C1309      H1314   1.083       .  S
C1310      C1311   1.408       .  A
C1310      H1315   1.083       .  S
C1311      C1312   1.402       .  A
C1312      H1316   1.083       .  S
C1317      C1318   1.407       .  A
C1317      C1322   1.393       .  A
C1317      H1323   1.083       .  S
C1318      C1319   1.406       .  A
C1319      C1320   1.403       .  A
C1319      H1324   1.083       .  S
C1320      C1321   1.407       .  A
C1320      H1325   1.083       .  S
C1321      C1322   1.402       .  A
C1322      H1326   1.083       .  S
C1327      C1328   1.408       .  A
C1327      C1332   1.394       .  A
C1327      H1333   1.083       .  S
C1328      C1329   1.405       .  A
C1329      C1330   1.402       .  A
C1329      H1334   1.083       .  S
C1330      C1331   1.408       .  A
C1330      H1335   1.083       .  S
C1331      C1332   1.402       .  A
C1332      H1336   1.083       .  S
C1337      C1338   1.408       .  A
C1337      C1342   1.397       .  A
C1337      H1343   1.083       .  S
C1338      C1339   1.402       .  A
C1339      C1340   1.401       .  A
C1339      H1344   1.083       .  S
C1340      C1341   1.410       .  A
C1340      H1345   1.083       .  S
C1341      C1342   1.402       .  A
C1342      H1346   1.083       .  S
C1347      C1348   1.407       .  A
C1347      C1352   1.393       .  A
C1347      H1353   1.083       .  S
C1348      C1349   1.407       .  A
C1349      C1350   1.405       .  A
C1349      H1354   1.083       .  S
C1350      C1351   1.408       .  A
C1350      H1355   1.083       .  S
C1351      C1352   1.402       .  A
C1352      H1356   1.083       .  S
C1357      C1358   1.406   1_655  A
C1357      C1362   1.395   1_655  A
C1357      H1363   1.083       .  S
C1358      C1359   1.402       .  A
C1359      C1360   1.400       .  A
C1359      H1364   1.083       .  S
C1360      C1361   1.409       .  A
C1360      H1365   1.083       .  S
C1361      C1362   1.403       .  A
C1362      H1366   1.083   1_455  S
C1367      C1368   1.402       .  A
C1367      C1372   1.393       .  A
C1367      H1373   1.083       .  S
C1368      C1369   1.408       .  A
C1369      C1370   1.403       .  A
C1369      H1374   1.083       .  S
C1370      C1371   1.405       .  A
C1370      H1375   1.083       .  S
C1371      C1372   1.408       .  A
C1372      H1376   1.083       .  S
C1377      C1378   1.407       .  A
C1377      C1382   1.401       .  A
C1377      H1383   1.083       .  S
C1378      C1379   1.403       .  A
C1379      C1380   1.394       .  A
C1379      H1384   1.083       .  S
C1380      C1381   1.407       .  A
C1380      H1385   1.083       .  S
C1381      C1382   1.405       .  A
C1382      H1386   1.083       .  S
C1387      C1388   1.404       .  A
C1387      C1392   1.396       .  A
C1387      H1393   1.083       .  S
C1388      C1389   1.409       .  A
C1389      C1390   1.400       .  A
C1389      H1394   1.083       .  S
C1390      C1391   1.402       .  A
C1390      H1395   1.083       .  S
C1391      C1392   1.406       .  A
C1392      H1396   1.083       .  S
C1397      C1398   1.403       .  A
C1397      C1402   1.395       .  A
C1397      H1403   1.083       .  S
C1398      C1399   1.407       .  A
C1399      C1400   1.402       .  A
C1399      H1404   1.083   1_655  S
C1400      C1401   1.406       .  A
C1400      H1405   1.083   1_655  S
C1401      C1402   1.407       .  A
C1402      H1406   1.083       .  S
C1407      C1408   1.403       .  A
C1407      C1412   1.394       .  A
C1407      H1413   1.083       .  S
C1408      C1409   1.410       .  A
C1409      C1410   1.401       .  A
C1409      H1414   1.083       .  S
C1410      C1411   1.402       .  A
C1410      H1415   1.083       .  S
C1411      C1412   1.405       .  A
C1412      H1416   1.084       .  S
C1417      C1418   1.409       .  A
C1417      C1422   1.401       .  A
C1417      H1423   1.083       .  S
C1418      C1419   1.402       .  A
C1419      C1420   1.395       .  A
C1419      H1424   1.083       .  S
C1420      C1421   1.407       .  A
C1420      H1425   1.083       .  S
C1421      C1422   1.402       .  A
C1422      H1426   1.083       .  S
C1427      C1428   1.409       .  A
C1427      C1432   1.401       .  A
C1427      H1433   1.083       .  S
C1428      C1429   1.403       .  A
C1429      C1430   1.393       .  A
C1429      H1434   1.083       .  S
C1430      C1431   1.406       .  A
C1430      H1435   1.083       .  S
C1431      C1432   1.403       .  A
C1432      H1436   1.083       .  S
C1437      C1438   1.404       .  A
C1437      C1442   1.395       .  A
C1437      H1443   1.083       .  S
C1438      C1439   1.409       .  A
C1439      C1440   1.400       .  A
C1439      H1444   1.083       .  S
C1440      C1441   1.402       .  A
C1440      H1445   1.083       .  S
C1441      C1442   1.405       .  A
C1442      H1446   1.083       .  S
C1447      C1448   1.408       .  A
C1447      C1452   1.403       .  A
C1447      H1453   1.083       .  S
C1448      C1449   1.404       .  A
C1449      C1450   1.395       .  A
C1449      H1454   1.083       .  S
C1450      C1451   1.407       .  A
C1450      H1455   1.083       .  S
C1451      C1452   1.406       .  A
C1452      H1456   1.083       .  S
C1457      C1458   1.403       .  A
C1457      C1462   1.395       .  A
C1457      H1463   1.083       .  S
C1458      C1459   1.410       .  A
C1459      C1460   1.402       .  A
C1459      H1464   1.083       .  S
C1460      C1461   1.403       .  A
C1460      H1465   1.083       .  S
C1461      C1462   1.406       .  A
C1462      H1466   1.083       .  S
C1467      C1468   1.408       .  A
C1467      C1472   1.403       .  A
C1467      H1473   1.083       .  S
C1468      C1469   1.401       .  A
C1469      C1470   1.392       .  A
C1469      H1474   1.083       .  S
C1470      C1471   1.408       .  A
C1470      H1475   1.083       .  S
C1471      C1472   1.406       .  A
C1472      H1476   1.083       .  S
C1477      C1478   1.406       .  A
C1477      C1482   1.394       .  A
C1477      H1483   1.083       .  S
C1478      C1479   1.403       .  A
C1479      C1480   1.403       .  A
C1479      H1484   1.083       .  S
C1480      C1481   1.411       .  A
C1480      H1485   1.083       .  S
C1481      C1482   1.403       .  A
C1482      H1486   1.083       .  S
C1487      C1488   1.407       .  A
C1487      C1492   1.392       .  A
C1487      H1493   1.083       .  S
C1488      C1489   1.405       .  A
C1489      C1490   1.401       .  A
C1489      H1494   1.083       .  S
C1490      C1491   1.407       .  A
C1490      H1495   1.083       .  S
C1491      C1492   1.402       .  A
C1492      H1496   1.083       .  S
C1497      C1498   1.401       .  A
C1497      C1502   1.394       .  A
C1497      H1503   1.083       .  S
C1498      C1499   1.410       .  A
C1499      C1500   1.400       .  A
C1499      H1504   1.083       .  S
C1500      C1501   1.401       .  A
C1500      H1505   1.083       .  S
C1501      C1502   1.408       .  A
C1502      H1506   1.083       .  S
C1507      C1508   1.402       .  A
C1507      C1512   1.395       .  A
C1507      H1513   1.083       .  S
C1508      C1509   1.409       .  A
C1509      C1510   1.399       .  A
C1509      H1514   1.083       .  S
C1510      C1511   1.402       .  A
C1510      H1515   1.083       .  S
C1511      C1512   1.408       .  A
C1512      H1516   1.083       .  S
C1517      C1518   1.407       .  A
C1517      C1522   1.394       .  A
C1517      H1523   1.083       .  S
C1518      C1519   1.405       .  A
C1519      C1520   1.402       .  A
C1519      H1524   1.083       .  S
C1520      C1521   1.408       .  A
C1520      H1525   1.083       .  S
C1521      C1522   1.403       .  A
C1522      H1526   1.083       .  S
C1527      C1528   1.407       .  A
C1527      C1532   1.395       .  A
C1527      H1533   1.083       .  S
C1528      C1529   1.402       .  A
C1529      C1530   1.402       .  A
C1529      H1534   1.083       .  S
C1530      C1531   1.411       .  A
C1530      H1535   1.083       .  S
C1531      C1532   1.403       .  A
C1532      H1536   1.083       .  S
C1537      C1538   1.409       .  A
C1537      C1542   1.393       .  A
C1537      H1543   1.083       .  S
C1538      C1539   1.406       .  A
C1539      C1540   1.405       .  A
C1539      H1544   1.083   1_455  S
C1540      C1541   1.408       .  A
C1540      H1545   1.083   1_455  S
C1541      C1542   1.401       .  A
C1542      H1546   1.083       .  S
C1547      C1548   1.405       .  A
C1547      C1552   1.404       .  A
C1547      H1553   1.083       .  S
C1548      C1549   1.408       .  A
C1549      C1550   1.394       .  A
C1549      H1554   1.083       .  S
C1550      C1551   1.403       .  A
C1550      H1555   1.083       .  S
C1551      C1552   1.408       .  A
C1552      H1556   1.083       .  S
C1557      C1558   1.402       .  A
C1557      C1562   1.401       .  A
C1557      H1563   1.083       .  S
C1558      C1559   1.408   1_556  A
C1559      C1560   1.397   1_554  A
C1559      H1564   1.083       .  S
C1560      C1561   1.403       .  A
C1560      H1565   1.083   1_556  S
C1561      C1562   1.411       .  A
C1562      H1566   1.083       .  S
C1567      C1568   1.402       .  A
C1567      C1572   1.401       .  A
C1567      H1573   1.083       .  S
C1568      C1569   1.406       .  A
C1569      C1570   1.394       .  A
C1569      H1574   1.083   1_565  S
C1570      C1571   1.402       .  A
C1570      H1575   1.083   1_565  S
C1571      C1572   1.409       .  A
C1572      H1576   1.083       .  S
C1577      C1578   1.407   1_455  A
C1577      C1582   1.396   1_455  A
C1577      H1583   1.083       .  S
C1578      C1579   1.403       .  A
C1579      C1580   1.402       .  A
C1579      H1584   1.083       .  S
C1580      C1581   1.410       .  A
C1580      H1585   1.083       .  S
C1581      C1582   1.403       .  A
C1582      H1586   1.083   1_655  S
C1587      C1588   1.407       .  A
C1587      C1592   1.403       .  A
C1587      H1593   1.083   1_554  S
C1588      C1589   1.402       .  A
C1589      C1590   1.395       .  A
C1589      H1594   1.083       .  S
C1590      C1591   1.408       .  A
C1590      H1595   1.083       .  S
C1591      C1592   1.406       .  A
C1592      H1596   1.083   1_554  S
C1597      C1598   1.403       .  A
C1597      C1602   1.394       .  A
C1597      H1603   1.083       .  S
C1598      C1599   1.409       .  A
C1599      C1600   1.404       .  A
C1599      H1604   1.083   1_545  S
C1600      C1601   1.405       .  A
C1600      H1605   1.083   1_545  S
C1601      C1602   1.408       .  A
C1602      H1606   1.083       .  S
C1607      C1608   1.401       .  A
C1607      C1612   1.393       .  A
C1607      H1613   1.083       .  S
C1608      C1609   1.407       .  A
C1609      C1610   1.402       .  A
C1609      H1614   1.083   1_455  S
C1610      C1611   1.405       .  A
C1610      H1615   1.083   1_455  S
C1611      C1612   1.409       .  A
C1612      H1616   1.083       .  S
