geometry optimzed in LAMMPS
_audit_creation_date              2020-11-30 
_audit_creation_method            'lammps2cif' 
_symmetry_space_group_name_H-M    'P1' 
_symmetry_Int_Tables_number       1 
_symmetry_cell_setting            triclinic 
loop_ 
_symmetry_equiv_pos_as_xyz 
  x,y,z 
_cell_length_a                    42.07683322 
_cell_length_b                    42.07566433512184 
_cell_length_c                    31.051787769901992 
_cell_angle_alpha                 90.00155672208786 
_cell_angle_beta                  89.98046328212834 
_cell_angle_gamma                 119.98801095057529 
loop_ 
_atom_site_label 
_atom_site_type_symbol 
_atom_site_fract_x 
_atom_site_fract_y 
_atom_site_fract_z 
_atom_site_charge 
C1          C  0.34250535  0.20219382  0.00003935     0.84200
N2          N  0.36919970  0.19305482  0.00005267    -0.74100
C3          C  0.36007564  0.15722253  0.33337522     0.86700
N4          N  0.32424962  0.13053133  0.33335164    -0.74000
C5          C  0.29754457  0.13966408  0.33333835     0.86800
N6          N  0.30667422  0.17549300  0.00001577    -0.75700
C7          C  0.20258252  0.34213243  0.00010484     0.84200
N8          N  0.17588201  0.30630036  0.00009516    -0.74100
C9          C  0.14005395  0.29717177  0.00007418     0.86700
N10         N  0.13092258  0.32387800  0.33339511    -0.74000
C11         C  0.15761339  0.35970498  0.00007103     0.86800
N12         N  0.19344508  0.36882821  0.00009222    -0.75700
C13         C  0.37631267  0.37593135  0.00009666     0.01200
C14         C  0.50006707  0.12349624  0.33338198     0.01500
C15         C  0.12386709  0.49968636  0.33332135     0.01500
Fe16       Fe  0.45293083  0.49971603  0.16673265     1.65800
Fe17       Fe  0.00009118  0.45255349  0.16670929     1.73200
Fe18       Fe  0.04723704  0.04686187  0.16669062     1.54400
O19         O  0.03069354  0.06948324  0.11883846    -0.77700
O20         O  0.03926815  0.46909641  0.21453029    -0.76000
O21         O  0.46947301  0.03889076  0.11888458    -0.80200
O22         O  0.46946750  0.03887532  0.21458567    -0.75000
O23         O  0.06986808  0.03031095  0.11883790    -0.76800
O24         O  0.46093717  0.42994072  0.21459011    -0.79600
C25         C  0.00007698  0.06352884  0.22915975     1.01200
C26         C  0.50008158  0.06352970  0.10426504     1.08600
O27         O  0.50008649  0.49971067  0.16671092    -1.08500
O28         O  0.46091496  0.42992556  0.11888710    -0.71000
O29         O  0.43031507  0.46055765  0.11888109    -0.74500
O30         O  0.03068810  0.06949513  0.21454026    -0.75100
C31         C  0.43627269  0.43589855  0.10429162     1.00100
O32         O  0.43030580  0.46054165  0.21458465    -0.73100
O33         O  0.03924553  0.46908876  0.11882894    -0.78300
C34         C  0.06390637  0.49970521  0.22912710     1.02700
C35         C  0.06389893  0.49969847  0.10423183     1.08700
O36         O  0.06985863  0.03031841  0.21454023    -0.73900
C37         C  0.43627966  0.43589949  0.22918872     1.07000
C38         C  0.10362614  0.49969138  0.03841196    -0.09300
C39         C  0.08592636  0.49969549  0.06897648    -0.10800
C40         C  0.08593458  0.49969884  0.26436011    -0.09300
C41         C  0.10363205  0.49969067  0.29490897    -0.10800
C42         C  0.50007472  0.08555847  0.26440432    -0.09300
C43         C  0.50007216  0.10325881  0.29496241    -0.10800
C44         C  0.50007596  0.08555704  0.06902141    -0.09300
C45         C  0.50006939  0.10325564  0.03846520    -0.10800
C46         C  0.41425226  0.41387269  0.26444230    -0.09300
C47         C  0.39655139  0.39617192  0.29500486    -0.10800
C48         C  0.39654698  0.39616686  0.03850958    -0.09300
C49         C  0.41424523  0.41386849  0.06905805    -0.10800
C50         C  0.11179685  0.25929446  0.33339448    -0.14500
C51         C  0.08762209  0.22766563  0.33338370     0.09600
C52         C  0.05854640  0.19098423  0.33337471     0.11400
C53         C  0.03276495  0.16012682  0.33337322    -0.15400
C54         C  0.12780074  0.46698161  0.33332593    -0.14500
C55         C  0.13288940  0.44120200  0.33334086     0.09600
C56         C  0.14051788  0.41213453  0.33336475     0.11400
C57         C  0.14798841  0.38796497  0.33338494    -0.15400
C58         C  0.33967689  0.37199801  0.00011090    -0.14500
C59         C  0.30880451  0.36689132  0.00011923     0.09600
C60         C  0.27210367  0.35923692  0.00012283     0.11400
C61         C  0.24046272  0.35175287  0.00011911    -0.15400
C62         C  0.16049750  0.03238372  0.33330954    -0.14500
C63         C  0.19135600  0.05816275  0.33330578     0.09600
C64         C  0.22803864  0.08723454  0.33330912     0.11400
C65         C  0.25966801  0.11140723  0.33331876    -0.15400
C66         C  0.35212738  0.24007520  0.00005334    -0.14500
C67         C  0.35961501  0.27171853  0.00006645     0.09600
C68         C  0.36727321  0.30842129  0.00008186     0.11400
C69         C  0.37238114  0.33929536  0.00009203    -0.15400
C70         C  0.38833514  0.14759766  0.33338820    -0.14500
C71         C  0.41250844  0.14013273  0.33339579     0.09600
C72         C  0.44158091  0.13251346  0.33339882     0.11400
C73         C  0.46736373  0.12743034  0.33339493    -0.15400
C74         C  0.34250529  0.20219404  0.33337277     0.84200
N75         N  0.36919983  0.19305476  0.33338583    -0.74100
C76         C  0.36007562  0.15722270  0.66670876     0.86700
N77         N  0.32424966  0.13053128  0.66668493    -0.74000
C78         C  0.29754454  0.13966418  0.66667155     0.86800
N79         N  0.30667430  0.17549300  0.33334923    -0.75700
C80         C  0.20258263  0.34213212  0.33343823     0.84200
N81         N  0.17588159  0.30630040  0.33342848    -0.74100
C82         C  0.14005414  0.29717159  0.33340751     0.86700
N83         N  0.13092272  0.32387799  0.66672825    -0.74000
C84         C  0.15761361  0.35970462  0.33340457     0.86800
N85         N  0.19344466  0.36882836  0.33342547    -0.75700
C86         C  0.37631250  0.37593142  0.33342992     0.01200
C87         C  0.50006710  0.12349621  0.66671552     0.01500
C88         C  0.12386702  0.49968631  0.66665439     0.01500
Fe89       Fe  0.45293061  0.49971603  0.50006593     1.65800
Fe90       Fe  0.00009086  0.45255344  0.50004265     1.73200
Fe91       Fe  0.04723668  0.04686181  0.50002403     1.54400
O92         O  0.03069316  0.06948316  0.45217192    -0.77700
O93         O  0.03926789  0.46909634  0.54786368    -0.76000
O94         O  0.46947271  0.03889073  0.45221786    -0.80200
O95         O  0.46946729  0.03887531  0.54791892    -0.75000
O96         O  0.06986770  0.03031094  0.45217126    -0.76800
O97         O  0.46093691  0.42994071  0.54792359    -0.79600
C98         C  0.00007662  0.06352874  0.56249292     1.01200
C99         C  0.50008118  0.06352957  0.43759853     1.08600
O100        O  0.50008621  0.49971065  0.50004423    -1.08500
O101        O  0.46091461  0.42992544  0.45222041    -0.71000
O102        O  0.43031484  0.46055766  0.45221432    -0.74500
O103        O  0.03068774  0.06949511  0.54787362    -0.75100
C104        C  0.43627239  0.43589838  0.43762484     1.00100
O105        O  0.43030554  0.46054160  0.54791783    -0.73100
O106        O  0.03924522  0.46908872  0.45216236    -0.78300
C107        C  0.06390615  0.49970517  0.56246046     1.02700
C108        C  0.06389867  0.49969855  0.43756532     1.08700
O109        O  0.06985825  0.03031838  0.54787368    -0.73900
C110        C  0.43627935  0.43589949  0.56252195     1.07000
C111        C  0.10362592  0.49969141  0.37174553    -0.09300
C112        C  0.08592612  0.49969552  0.40230985    -0.10800
C113        C  0.08593441  0.49969879  0.59769335    -0.09300
C114        C  0.10363195  0.49969062  0.62824212    -0.10800
C115        C  0.50007456  0.08555851  0.59773777    -0.09300
C116        C  0.50007206  0.10325880  0.62829573    -0.10800
C117        C  0.50007569  0.08555700  0.40235454    -0.09300
C118        C  0.50006924  0.10325554  0.37179850    -0.10800
C119        C  0.41425200  0.41387271  0.59777567    -0.09300
C120        C  0.39655139  0.39617192  0.62833827    -0.10800
C121        C  0.39654664  0.39616674  0.37184286    -0.09300
C122        C  0.41424510  0.41386846  0.40239147    -0.10800
C123        C  0.11179685  0.25929454  0.66672764    -0.14500
C124        C  0.08762201  0.22766553  0.66671703     0.09600
C125        C  0.05854648  0.19098429  0.66670805     0.11400
C126        C  0.03276486  0.16012675  0.66670649    -0.15400
C127        C  0.12780069  0.46698169  0.66665900    -0.14500
C128        C  0.13288940  0.44120192  0.66667385     0.09600
C129        C  0.14051788  0.41213469  0.66669789     0.11400
C130        C  0.14798843  0.38796484  0.66671807    -0.15400
C131        C  0.33967674  0.37199804  0.33344402    -0.14500
C132        C  0.30880435  0.36689131  0.33345223     0.09600
C133        C  0.27210361  0.35923687  0.33345597     0.11400
C134        C  0.24046244  0.35175278  0.33345218    -0.15400
C135        C  0.16049742  0.03238372  0.66664252    -0.14500
C136        C  0.19135611  0.05816278  0.66663865     0.09600
C137        C  0.22803857  0.08723452  0.66664192     0.11400
C138        C  0.25966809  0.11140724  0.66665177    -0.15400
C139        C  0.35212746  0.24007525  0.33338653    -0.14500
C140        C  0.35961490  0.27171853  0.33339977     0.09600
C141        C  0.36727314  0.30842139  0.33341508     0.11400
C142        C  0.37238096  0.33929534  0.33342526    -0.15400
C143        C  0.38833522  0.14759750  0.66672195    -0.14500
C144        C  0.41250837  0.14013277  0.66672943     0.09600
C145        C  0.44158108  0.13251340  0.66673250     0.11400
C146        C  0.46736365  0.12743029  0.66672871    -0.15400
C147        C  0.34250528  0.20219422  0.66670601     0.84200
N148        N  0.36919985  0.19305466  0.66671933    -0.74100
C149        C  0.36007571  0.15722224  0.00004210     0.86700
N150        N  0.32424957  0.13053132  0.00001830    -0.74000
C151        C  0.29754464  0.13966387  0.00000495     0.86800
N152        N  0.30667426  0.17549287  0.66668240    -0.75700
C153        C  0.20258248  0.34213215  0.66677170     0.84200
N154        N  0.17588170  0.30630041  0.66676196    -0.74100
C155        C  0.14005391  0.29717155  0.66674092     0.86700
N156        N  0.13092294  0.32387776  0.00006171    -0.74000
C157        C  0.15761342  0.35970468  0.66673768     0.86800
N158        N  0.19344480  0.36882831  0.66675884    -0.75700
C159        C  0.37631245  0.37593128  0.66676340     0.01200
C160        C  0.50006714  0.12349628  0.00004882     0.01500
C161        C  0.12386712  0.49968622  0.99998780     0.01500
Fe162      Fe  0.45293083  0.49971605  0.83339925     1.65800
Fe163      Fe  0.00009117  0.45255353  0.83337594     1.73200
Fe164      Fe  0.04723697  0.04686187  0.83335739     1.54400
O165        O  0.03069343  0.06948334  0.78550537    -0.77700
O166        O  0.03926816  0.46909639  0.88119687    -0.76000
O167        O  0.46947296  0.03889073  0.78555124    -0.80200
O168        O  0.46946753  0.03887536  0.88125235    -0.75000
O169        O  0.06986808  0.03031105  0.78550465    -0.76800
O170        O  0.46093719  0.42994072  0.88125680    -0.79600
C171        C  0.00007684  0.06352871  0.89582645     1.01200
C172        C  0.50008139  0.06352968  0.77093184     1.08600
O173        O  0.50008650  0.49971071  0.83337769    -1.08500
O174        O  0.46091499  0.42992558  0.78555373    -0.71000
O175        O  0.43031504  0.46055758  0.78554775    -0.74500
O176        O  0.03068799  0.06949515  0.88120709    -0.75100
C177        C  0.43627265  0.43589839  0.77095832     1.00100
O178        O  0.43030577  0.46054162  0.88125127    -0.73100
O179        O  0.03924549  0.46908881  0.78549564    -0.78300
C180        C  0.06390650  0.49970528  0.89579387     1.02700
C181        C  0.06389904  0.49969873  0.77089853     1.08700
O182        O  0.06985845  0.03031840  0.88120703    -0.73900
C183        C  0.43627970  0.43589953  0.89585533     1.07000
C184        C  0.10362613  0.49969147  0.70507863    -0.09300
C185        C  0.08592636  0.49969565  0.73564317    -0.10800
C186        C  0.08593459  0.49969878  0.93102664    -0.09300
C187        C  0.10363214  0.49969063  0.96157563    -0.10800
C188        C  0.50007472  0.08555851  0.93107120    -0.09300
C189        C  0.50007215  0.10325885  0.96162902    -0.10800
C190        C  0.50007581  0.08555689  0.73568802    -0.09300
C191        C  0.50006935  0.10325566  0.70513188    -0.10800
C192        C  0.41425231  0.41387264  0.93110893    -0.09300
C193        C  0.39655159  0.39617191  0.96167153    -0.10800
C194        C  0.39654668  0.39616677  0.70517634    -0.09300
C195        C  0.41424527  0.41386841  0.73572480    -0.10800
C196        C  0.11179715  0.25929453  0.00006092    -0.14500
C197        C  0.08762222  0.22766549  0.00005038     0.09600
C198        C  0.05854668  0.19098429  0.00004137     0.11400
C199        C  0.03276504  0.16012672  0.00003977    -0.15400
C200        C  0.12780086  0.46698179  0.99999247    -0.14500
C201        C  0.13288951  0.44120163  0.00000729     0.09600
C202        C  0.14051779  0.41213478  0.00003126     0.11400
C203        C  0.14798861  0.38796457  0.00005153    -0.15400
C204        C  0.33967674  0.37199802  0.66677768    -0.14500
C205        C  0.30880430  0.36689126  0.66678599     0.09600
C206        C  0.27210355  0.35923681  0.66678965     0.11400
C207        C  0.24046248  0.35175278  0.66678582    -0.15400
C208        C  0.16049756  0.03238367  0.99997603    -0.14500
C209        C  0.19135600  0.05816267  0.99997218     0.09600
C210        C  0.22803870  0.08723449  0.99997542     0.11400
C211        C  0.25966802  0.11140718  0.99998518    -0.15400
C212        C  0.35212732  0.24007501  0.66672000    -0.14500
C213        C  0.35961495  0.27171867  0.66673310     0.09600
C214        C  0.36727313  0.30842124  0.66674850     0.11400
C215        C  0.37238097  0.33929541  0.66675869    -0.15400
C216        C  0.38833510  0.14759764  0.00005510    -0.14500
C217        C  0.41250863  0.14013271  0.00006264     0.09600
C218        C  0.44158099  0.13251346  0.00006561     0.11400
C219        C  0.46736381  0.12743027  0.00006172    -0.15400
C220        C  0.34250552  0.70219399  0.00003935     0.84200
N221        N  0.36919979  0.69305476  0.00005267    -0.74100
C222        C  0.36007537  0.65722198  0.33337522     0.86700
N223        N  0.32424976  0.63053162  0.33335164    -0.74000
C224        C  0.29754418  0.63966354  0.33333835     0.86800
N225        N  0.30667426  0.67549292  0.00001577    -0.75700
C226        C  0.20258254  0.84213224  0.00010484     0.84200
N227        N  0.17588202  0.80630050  0.00009516    -0.74100
C228        C  0.14005391  0.79717150  0.00007418     0.86700
N229        N  0.13092272  0.82387781  0.33339511    -0.74000
C230        C  0.15761333  0.85970467  0.00007103     0.86800
N231        N  0.19344511  0.86882832  0.00009222    -0.75700
C232        C  0.37631266  0.87593135  0.00009670     0.01200
C233        C  0.50006709  0.62349632  0.33338196     0.01500
C234        C  0.12386703  0.99968626  0.33332138     0.01500
Fe235      Fe  0.45293084  0.99971603  0.16673264     1.65800
Fe236      Fe  0.00009119  0.95255346  0.16670932     1.73200
Fe237      Fe  0.04723702  0.54686188  0.16669064     1.54400
O238        O  0.03069352  0.56948329  0.11883848    -0.77700
O239        O  0.03926817  0.96909639  0.21453024    -0.76000
O240        O  0.46947294  0.53889073  0.11888462    -0.80200
O241        O  0.46946753  0.53887540  0.21458566    -0.75000
O242        O  0.06986802  0.53031096  0.11883792    -0.76800
O243        O  0.46093715  0.92994070  0.21459019    -0.79600
C244        C  0.00007676  0.56352875  0.22915980     1.01200
C245        C  0.50008134  0.56352962  0.10426498     1.08600
O246        O  0.50008645  0.99971063  0.16671091    -1.08500
O247        O  0.46091500  0.92992555  0.11888713    -0.71000
O248        O  0.43031515  0.96055767  0.11888103    -0.74500
O249        O  0.03068801  0.56949518  0.21454023    -0.75100
C250        C  0.43627270  0.93589841  0.10429165     1.00100
O251        O  0.43030581  0.96054166  0.21458460    -0.73100
O252        O  0.03924552  0.96908872  0.11882902    -0.78300
C253        C  0.06390646  0.99970516  0.22912711     1.02700
C254        C  0.06389899  0.99969856  0.10423180     1.08700
O255        O  0.06985853  0.53031839  0.21454031    -0.73900
C256        C  0.43627955  0.93589941  0.22918865     1.07000
C257        C  0.10362617  0.99969132  0.03841197    -0.09300
C258        C  0.08592629  0.99969544  0.06897648    -0.10800
C259        C  0.08593454  0.99969877  0.26436011    -0.09300
C260        C  0.10363219  0.99969079  0.29490905    -0.10800
C261        C  0.50007484  0.58555856  0.26440440    -0.09300
C262        C  0.50007211  0.60325888  0.29496229    -0.10800
C263        C  0.50007584  0.58555692  0.06902139    -0.09300
C264        C  0.50006947  0.60325575  0.03846515    -0.10800
C265        C  0.41425226  0.91387269  0.26444213    -0.09300
C266        C  0.39655141  0.89617192  0.29500480    -0.10800
C267        C  0.39654695  0.89616688  0.03850957    -0.09300
C268        C  0.41424530  0.91386835  0.06905814    -0.10800
C269        C  0.11179703  0.75929453  0.33339448    -0.14500
C270        C  0.08762197  0.72766545  0.33338370     0.09600
C271        C  0.05854653  0.69098427  0.33337471     0.11400
C272        C  0.03276488  0.66012665  0.33337322    -0.15400
C273        C  0.12780075  0.96698179  0.33332597    -0.14500
C274        C  0.13288940  0.94120169  0.33334087     0.09600
C275        C  0.14051767  0.91213480  0.33336475     0.11400
C276        C  0.14798848  0.88796464  0.33338494    -0.15400
C277        C  0.33967701  0.87199805  0.00011086    -0.14500
C278        C  0.30880437  0.86689130  0.00011922     0.09600
C279        C  0.27210386  0.85923695  0.00012283     0.11400
C280        C  0.24046262  0.85175270  0.00011911    -0.15400
C281        C  0.16049725  0.53238353  0.33330959    -0.14500
C282        C  0.19135631  0.55816299  0.33330583     0.09600
C283        C  0.22803825  0.58723429  0.33330912     0.11400
C284        C  0.25966833  0.61140752  0.33331875    -0.15400
C285        C  0.35212750  0.74007524  0.00005335    -0.14500
C286        C  0.35961506  0.77171847  0.00006645     0.09600
C287        C  0.36727319  0.80842141  0.00008183     0.11400
C288        C  0.37238114  0.83929526  0.00009199    -0.15400
C289        C  0.38833513  0.64759764  0.33338820    -0.14500
C290        C  0.41250842  0.64013271  0.33339579     0.09600
C291        C  0.44158105  0.63251351  0.33339882     0.11400
C292        C  0.46736370  0.62743037  0.33339494    -0.15400
C293        C  0.34250511  0.70219355  0.33337277     0.84200
N294        N  0.36919987  0.69305510  0.33338583    -0.74100
C295        C  0.36007579  0.65722243  0.66670876     0.86700
N296        N  0.32424948  0.63053136  0.66668493    -0.74000
C297        C  0.29754470  0.63966401  0.66667155     0.86800
N298        N  0.30667444  0.67549338  0.33334923    -0.75700
C299        C  0.20258238  0.84213242  0.33343823     0.84200
N300        N  0.17588179  0.80630038  0.33342848    -0.74100
C301        C  0.14005376  0.79717176  0.33340751     0.86700
N302        N  0.13092266  0.82387775  0.66672821    -0.74000
C303        C  0.15761324  0.85970500  0.33340457     0.86800
N304        N  0.19344486  0.86882822  0.33342547    -0.75700
C305        C  0.37631252  0.87593140  0.33342986     0.01200
C306        C  0.50006705  0.62349626  0.66671551     0.01500
C307        C  0.12386699  0.99968628  0.66665443     0.01500
Fe308      Fe  0.45293058  0.99971603  0.50006596     1.65800
Fe309      Fe  0.00009086  0.95255342  0.50004268     1.73200
Fe310      Fe  0.04723678  0.54686187  0.50002402     1.54400
O311        O  0.03069321  0.56948323  0.45217194    -0.77700
O312        O  0.03926794  0.96909635  0.54786364    -0.76000
O313        O  0.46947274  0.53889076  0.45221784    -0.80200
O314        O  0.46946732  0.53887535  0.54791895    -0.75000
O315        O  0.06986776  0.53031096  0.45217126    -0.76800
O316        O  0.46093691  0.92994066  0.54792361    -0.79600
C317        C  0.00007662  0.56352878  0.56249298     1.01200
C318        C  0.50008115  0.56352958  0.43759854     1.08600
O319        O  0.50008621  0.99971061  0.50004423    -1.08500
O320        O  0.46091457  0.92992546  0.45222047    -0.71000
O321        O  0.43031483  0.96055773  0.45221436    -0.74500
O322        O  0.03068780  0.56949515  0.54787363    -0.75100
C323        C  0.43627226  0.93589851  0.43762487     1.00100
O324        O  0.43030558  0.96054165  0.54791788    -0.73100
O325        O  0.03924521  0.96908871  0.45216235    -0.78300
C326        C  0.06390620  0.99970515  0.56246041     1.02700
C327        C  0.06389881  0.99969859  0.43756535     1.08700
O328        O  0.06985829  0.53031836  0.54787369    -0.73900
C329        C  0.43627932  0.93589937  0.56252205     1.07000
C330        C  0.10362595  0.99969141  0.37174548    -0.09300
C331        C  0.08592610  0.99969548  0.40230994    -0.10800
C332        C  0.08593448  0.99969884  0.59769329    -0.09300
C333        C  0.10363195  0.99969064  0.62824215    -0.10800
C334        C  0.50007462  0.58555848  0.59773783    -0.09300
C335        C  0.50007194  0.60325879  0.62829571    -0.10800
C336        C  0.50007571  0.58555703  0.40235455    -0.09300
C337        C  0.50006922  0.60325554  0.37179843    -0.10800
C338        C  0.41425208  0.91387279  0.59777563    -0.09300
C339        C  0.39655136  0.89617182  0.62833831    -0.10800
C340        C  0.39654668  0.89616677  0.37184278    -0.09300
C341        C  0.41424501  0.91386847  0.40239144    -0.10800
C342        C  0.11179694  0.75929438  0.66672762    -0.14500
C343        C  0.08762207  0.72766557  0.66671702     0.09600
C344        C  0.05854648  0.69098422  0.66670806     0.11400
C345        C  0.03276497  0.66012677  0.66670650    -0.15400
C346        C  0.12780074  0.96698171  0.66665901    -0.14500
C347        C  0.13288943  0.94120180  0.66667385     0.09600
C348        C  0.14051768  0.91213468  0.66669788     0.11400
C349        C  0.14798853  0.88796473  0.66671805    -0.15400
C350        C  0.33967676  0.87199801  0.33344410    -0.14500
C351        C  0.30880423  0.86689133  0.33345229     0.09600
C352        C  0.27210361  0.85923694  0.33345596     0.11400
C353        C  0.24046245  0.85175281  0.33345218    -0.15400
C354        C  0.16049729  0.53238364  0.66664251    -0.14500
C355        C  0.19135609  0.55816277  0.66663865     0.09600
C356        C  0.22803849  0.58723455  0.66664192     0.11400
C357        C  0.25966801  0.61140731  0.66665177    -0.15400
C358        C  0.35212746  0.74007546  0.33338653    -0.14500
C359        C  0.35961494  0.77171835  0.33339976     0.09600
C360        C  0.36727312  0.80842148  0.33341511     0.11400
C361        C  0.37238090  0.83929521  0.33342528    -0.15400
C362        C  0.38833506  0.64759762  0.66672195    -0.14500
C363        C  0.41250840  0.64013268  0.66672944     0.09600
C364        C  0.44158096  0.63251341  0.66673247     0.11400
C365        C  0.46736363  0.62743030  0.66672869    -0.15400
C366        C  0.34250552  0.70219398  0.66670601     0.84200
N367        N  0.36919968  0.69305485  0.66671933    -0.74100
C368        C  0.36007594  0.65722259  0.00004210     0.86700
N369        N  0.32424958  0.63053124  0.00001830    -0.74000
C370        C  0.29754488  0.63966412  0.00000495     0.86800
N371        N  0.30667417  0.67549305  0.66668240    -0.75700
C372        C  0.20258244  0.84213247  0.66677165     0.84200
N373        N  0.17588168  0.80630030  0.66676207    -0.74100
C374        C  0.14005386  0.79717186  0.66674096     0.86700
N375        N  0.13092297  0.82387796  0.00006171    -0.74000
C376        C  0.15761338  0.85970504  0.66673772     0.86800
N377        N  0.19344483  0.86882818  0.66675894    -0.75700
C378        C  0.37631252  0.87593138  0.66676336     0.01200
C379        C  0.50006723  0.62349628  0.00004881     0.01500
C380        C  0.12386708  0.99968615  0.99998781     0.01500
Fe381      Fe  0.45293085  0.99971603  0.83339928     1.65800
Fe382      Fe  0.00009116  0.95255357  0.83337591     1.73200
Fe383      Fe  0.04723707  0.54686193  0.83335742     1.54400
O384        O  0.03069346  0.56948326  0.78550536    -0.77700
O385        O  0.03926816  0.96909643  0.88119680    -0.76000
O386        O  0.46947299  0.53889072  0.78555122    -0.80200
O387        O  0.46946752  0.53887537  0.88125227    -0.75000
O388        O  0.06986813  0.53031104  0.78550466    -0.76800
O389        O  0.46093712  0.92994067  0.88125676    -0.79600
C390        C  0.00007668  0.56352863  0.89582641     1.01200
C391        C  0.50008142  0.56352963  0.77093189     1.08600
O392        O  0.50008652  0.99971070  0.83337768    -1.08500
O393        O  0.46091489  0.92992553  0.78555371    -0.71000
O394        O  0.43031505  0.96055765  0.78554771    -0.74500
O395        O  0.03068798  0.56949506  0.88120709    -0.75100
C396        C  0.43627247  0.93589845  0.77095830     1.00100
O397        O  0.43030584  0.96054165  0.88125134    -0.73100
O398        O  0.03924551  0.96908883  0.78549564    -0.78300
C399        C  0.06390649  0.99970525  0.89579382     1.02700
C400        C  0.06389916  0.99969872  0.77089857     1.08700
O401        O  0.06985854  0.53031844  0.88120711    -0.73900
C402        C  0.43627960  0.93589948  0.89585536     1.07000
C403        C  0.10362613  0.99969149  0.70507856    -0.09300
C404        C  0.08592635  0.99969570  0.73564325    -0.10800
C405        C  0.08593458  0.99969880  0.93102658    -0.09300
C406        C  0.10363216  0.99969056  0.96157562    -0.10800
C407        C  0.50007479  0.58555858  0.93107107    -0.09300
C408        C  0.50007220  0.60325888  0.96162889    -0.10800
C409        C  0.50007586  0.58555696  0.73568802    -0.09300
C410        C  0.50006945  0.60325569  0.70513191    -0.10800
C411        C  0.41425227  0.91387266  0.93110901    -0.09300
C412        C  0.39655156  0.89617188  0.96167163    -0.10800
C413        C  0.39654673  0.89616678  0.70517627    -0.09300
C414        C  0.41424512  0.91386850  0.73572478    -0.10800
C415        C  0.11179731  0.75929461  0.00006092    -0.14500
C416        C  0.08762202  0.72766540  0.00005037     0.09600
C417        C  0.05854673  0.69098439  0.00004141     0.11400
C418        C  0.03276496  0.66012664  0.00003984    -0.15400
C419        C  0.12780076  0.96698157  0.99999239    -0.14500
C420        C  0.13288948  0.94120176  0.00000725     0.09600
C421        C  0.14051790  0.91213461  0.00003126     0.11400
C422        C  0.14798858  0.88796468  0.00005154    -0.15400
C423        C  0.33967678  0.87199800  0.66677764    -0.14500
C424        C  0.30880424  0.86689128  0.66678593     0.09600
C425        C  0.27210359  0.85923688  0.66678967     0.11400
C426        C  0.24046244  0.85175276  0.66678593    -0.15400
C427        C  0.16049763  0.53238369  0.99997596    -0.14500
C428        C  0.19135608  0.55816266  0.99997214     0.09600
C429        C  0.22803881  0.58723456  0.99997542     0.11400
C430        C  0.25966803  0.61140714  0.99998518    -0.15400
C431        C  0.35212742  0.74007535  0.66672000    -0.14500
C432        C  0.35961499  0.77171849  0.66673309     0.09600
C433        C  0.36727312  0.80842145  0.66674853     0.11400
C434        C  0.37238094  0.83929527  0.66675876    -0.15400
C435        C  0.38833520  0.64759763  0.00005510    -0.14500
C436        C  0.41250863  0.64013276  0.00006263     0.09600
C437        C  0.44158110  0.63251354  0.00006566     0.11400
C438        C  0.46736386  0.62743035  0.00006181    -0.15400
C439        C  0.84250543  0.20219382  0.00003935     0.84200
N440        N  0.86919978  0.19305484  0.00005267    -0.74100
C441        C  0.86007576  0.15722243  0.33337522     0.86700
N442        N  0.82424945  0.13053136  0.33335164    -0.74000
C443        C  0.79754469  0.13966401  0.33333835     0.86800
N444        N  0.80667431  0.17549302  0.00001577    -0.75700
C445        C  0.70258249  0.34213217  0.00010484     0.84200
N446        N  0.67588206  0.30630051  0.00009516    -0.74100
C447        C  0.64005391  0.29717145  0.00007418     0.86700
N448        N  0.63092266  0.32387784  0.33339511    -0.74000
C449        C  0.65761328  0.35970465  0.00007103     0.86800
N450        N  0.69344507  0.36882832  0.00009222    -0.75700
C451        C  0.87631269  0.37593133  0.00009669     0.01200
C452        C  0.00006706  0.12349622  0.33338197     0.01500
C453        C  0.62386700  0.49968630  0.33332138     0.01500
Fe454      Fe  0.95293082  0.49971601  0.16673265     1.65800
Fe455      Fe  0.50009122  0.45255353  0.16670928     1.73200
Fe456      Fe  0.54723698  0.04686186  0.16669059     1.54400
O457        O  0.53069353  0.06948327  0.11883847    -0.77700
O458        O  0.53926816  0.46909641  0.21453024    -0.76000
O459        O  0.96947303  0.03889074  0.11888459    -0.80200
O460        O  0.96946762  0.03887537  0.21458564    -0.75000
O461        O  0.56986802  0.03031096  0.11883786    -0.76800
O462        O  0.96093710  0.42994066  0.21459014    -0.79600
C463        C  0.50007676  0.06352878  0.22915971     1.01200
C464        C  0.00008142  0.06352963  0.10426508     1.08600
O465        O  0.00008649  0.49971065  0.16671093    -1.08500
O466        O  0.96091490  0.42992551  0.11888715    -0.71000
O467        O  0.93031507  0.46055768  0.11888101    -0.74500
O468        O  0.53068799  0.06949512  0.21454023    -0.75100
C469        C  0.93627264  0.43589852  0.10429156     1.00100
O470        O  0.93030578  0.46054164  0.21458455    -0.73100
O471        O  0.53924557  0.46908877  0.11882902    -0.78300
C472        C  0.56390644  0.49970522  0.22912710     1.02700
C473        C  0.56389892  0.49969848  0.10423181     1.08700
O474        O  0.56985853  0.03031840  0.21454028    -0.73900
C475        C  0.93627948  0.43589936  0.22918867     1.07000
C476        C  0.60362620  0.49969138  0.03841202    -0.09300
C477        C  0.58592632  0.49969549  0.06897646    -0.10800
C478        C  0.58593454  0.49969884  0.26436010    -0.09300
C479        C  0.60363210  0.49969069  0.29490902    -0.10800
C480        C  0.00007486  0.08555850  0.26440431    -0.09300
C481        C  0.00007208  0.10325882  0.29496236    -0.10800
C482        C  0.00007588  0.08555701  0.06902144    -0.09300
C483        C  0.00006948  0.10325563  0.03846514    -0.10800
C484        C  0.91425225  0.41387272  0.26444217    -0.09300
C485        C  0.89655134  0.39617179  0.29500485    -0.10800
C486        C  0.89654691  0.39616683  0.03850959    -0.09300
C487        C  0.91424530  0.41386849  0.06905804    -0.10800
C488        C  0.61179697  0.25929447  0.33339448    -0.14500
C489        C  0.58762208  0.22766561  0.33338370     0.09600
C490        C  0.55854649  0.19098425  0.33337471     0.11400
C491        C  0.53276499  0.16012677  0.33337324    -0.15400
C492        C  0.62780073  0.46698171  0.33332593    -0.14500
C493        C  0.63288940  0.44120185  0.33334084     0.09600
C494        C  0.64051768  0.41213467  0.33336475     0.11400
C495        C  0.64798854  0.38796482  0.33338494    -0.15400
C496        C  0.83967699  0.37199806  0.00011086    -0.14500
C497        C  0.80880444  0.36689136  0.00011922     0.09600
C498        C  0.77210379  0.35923693  0.00012283     0.11400
C499        C  0.74046266  0.35175284  0.00011911    -0.15400
C500        C  0.66049731  0.03238366  0.33330953    -0.14500
C501        C  0.69135610  0.05816280  0.33330579     0.09600
C502        C  0.72803850  0.08723456  0.33330912     0.11400
C503        C  0.75966801  0.11140731  0.33331876    -0.15400
C504        C  0.85212748  0.24007523  0.00005334    -0.14500
C505        C  0.85961507  0.27171851  0.00006645     0.09600
C506        C  0.86727316  0.30842129  0.00008186     0.11400
C507        C  0.87238121  0.33929534  0.00009205    -0.15400
C508        C  0.88833506  0.14759761  0.33338820    -0.14500
C509        C  0.91250837  0.14013267  0.33339578     0.09600
C510        C  0.94158098  0.13251340  0.33339883     0.11400
C511        C  0.96736362  0.12743029  0.33339497    -0.15400
C512        C  0.84250550  0.20219397  0.33337277     0.84200
N513        N  0.86919966  0.19305485  0.33338583    -0.74100
C514        C  0.86007582  0.15722234  0.66670876     0.86700
N515        N  0.82424937  0.13053132  0.66668492    -0.74000
C516        C  0.79754471  0.13966394  0.66667155     0.86800
N517        N  0.80667415  0.17549304  0.33334923    -0.75700
C518        C  0.70258239  0.34213245  0.33343823     0.84200
N519        N  0.67588171  0.30630037  0.33342848    -0.74100
C520        C  0.64005383  0.29717182  0.33340751     0.86700
N521        N  0.63092277  0.32387795  0.66672825    -0.74000
C522        C  0.65761326  0.35970492  0.33340457     0.86800
N523        N  0.69344483  0.36882819  0.33342547    -0.75700
C524        C  0.87631250  0.37593139  0.33342988     0.01200
C525        C  0.00006702  0.12349625  0.66671553     0.01500
C526        C  0.62386699  0.49968627  0.66665442     0.01500
Fe527      Fe  0.95293058  0.49971600  0.50006597     1.65800
Fe528      Fe  0.50009087  0.45255347  0.50004263     1.73200
Fe529      Fe  0.54723673  0.04686186  0.50002398     1.54400
O530        O  0.53069318  0.06948319  0.45217188    -0.77700
O531        O  0.53926790  0.46909634  0.54786367    -0.76000
O532        O  0.96947267  0.03889073  0.45221777    -0.80200
O533        O  0.96946727  0.03887533  0.54791886    -0.75000
O534        O  0.56986777  0.03031096  0.45217130    -0.76800
O535        O  0.96093691  0.42994067  0.54792360    -0.79600
C536        C  0.50007652  0.06352872  0.56249295     1.01200
C537        C  0.00008108  0.06352954  0.43759849     1.08600
O538        O  0.00008623  0.49971064  0.50004420    -1.08500
O539        O  0.96091459  0.42992547  0.45222048    -0.71000
O540        O  0.93031481  0.46055768  0.45221434    -0.74500
O541        O  0.53068776  0.06949511  0.54787359    -0.75100
C542        C  0.93627227  0.43589855  0.43762487     1.00100
O543        O  0.93030556  0.46054158  0.54791788    -0.73100
O544        O  0.53924526  0.46908871  0.45216237    -0.78300
C545        C  0.56390621  0.49970516  0.56246043     1.02700
C546        C  0.56389882  0.49969855  0.43756537     1.08700
O547        O  0.56985826  0.03031837  0.54787364    -0.73900
C548        C  0.93627937  0.43589947  0.56252201     1.07000
C549        C  0.60362593  0.49969144  0.37174547    -0.09300
C550        C  0.58592610  0.49969552  0.40230993    -0.10800
C551        C  0.58593445  0.49969879  0.59769332    -0.09300
C552        C  0.60363195  0.49969065  0.62824215    -0.10800
C553        C  0.00007458  0.08555854  0.59773783    -0.09300
C554        C  0.00007199  0.10325876  0.62829570    -0.10800
C555        C  0.00007569  0.08555699  0.40235451    -0.09300
C556        C  0.00006921  0.10325556  0.37179845    -0.10800
C557        C  0.91425203  0.41387272  0.59777572    -0.09300
C558        C  0.89655140  0.39617190  0.62833829    -0.10800
C559        C  0.89654664  0.39616676  0.37184286    -0.09300
C560        C  0.91424499  0.41386845  0.40239146    -0.10800
C561        C  0.61179702  0.25929456  0.66672764    -0.14500
C562        C  0.58762202  0.22766552  0.66671703     0.09600
C563        C  0.55854659  0.19098434  0.66670804     0.11400
C564        C  0.53276494  0.16012676  0.66670648    -0.15400
C565        C  0.62780072  0.46698176  0.66665901    -0.14500
C566        C  0.63288942  0.44120178  0.66667385     0.09600
C567        C  0.64051771  0.41213472  0.66669789     0.11400
C568        C  0.64798855  0.38796473  0.66671807    -0.15400
C569        C  0.83967675  0.37199798  0.33344411    -0.14500
C570        C  0.80880423  0.36689127  0.33345229     0.09600
C571        C  0.77210357  0.35923689  0.33345596     0.11400
C572        C  0.74046249  0.35175285  0.33345218    -0.15400
C573        C  0.66049728  0.03238364  0.66664250    -0.14500
C574        C  0.69135611  0.05816276  0.66663863     0.09600
C575        C  0.72803848  0.08723450  0.66664193     0.11400
C576        C  0.75966799  0.11140728  0.66665177    -0.15400
C577        C  0.85212740  0.24007534  0.33338653    -0.14500
C578        C  0.85961497  0.27171849  0.33339977     0.09600
C579        C  0.86727311  0.30842145  0.33341507     0.11400
C580        C  0.87238092  0.33929527  0.33342525    -0.15400
C581        C  0.88833493  0.14759756  0.66672195    -0.14500
C582        C  0.91250846  0.14013258  0.66672943     0.09600
C583        C  0.94158082  0.13251337  0.66673250     0.11400
C584        C  0.96736367  0.12743027  0.66672872    -0.15400
C585        C  0.84250553  0.20219395  0.66670601     0.84200
N586        N  0.86919959  0.19305482  0.66671933    -0.74100
C587        C  0.86007577  0.15722226  0.00004210     0.86700
N588        N  0.82424964  0.13053132  0.00001830    -0.74000
C589        C  0.79754472  0.13966388  0.00000495     0.86800
N590        N  0.80667409  0.17549302  0.66668240    -0.75700
C591        C  0.70258231  0.34213228  0.66677170     0.84200
N592        N  0.67588180  0.30630045  0.66676196    -0.74100
C593        C  0.64005370  0.29717162  0.66674092     0.86700
N594        N  0.63092298  0.32387795  0.00006171    -0.74000
C595        C  0.65761316  0.35970477  0.66673768     0.86800
N596        N  0.69344493  0.36882825  0.66675884    -0.75700
C597        C  0.87631248  0.37593130  0.66676338     0.01200
C598        C  0.00006722  0.12349627  0.00004882     0.01500
C599        C  0.62386719  0.49968625  0.99998781     0.01500
Fe600      Fe  0.95293079  0.49971601  0.83339928     1.65800
Fe601      Fe  0.50009119  0.45255353  0.83337591     1.73200
Fe602      Fe  0.54723703  0.04686189  0.83335740     1.54400
O603        O  0.53069348  0.06948334  0.78550538    -0.77700
O604        O  0.53926817  0.46909639  0.88119683    -0.76000
O605        O  0.96947292  0.03889074  0.78555122    -0.80200
O606        O  0.96946751  0.03887538  0.88125233    -0.75000
O607        O  0.56986812  0.03031105  0.78550464    -0.76800
O608        O  0.96093718  0.42994073  0.88125682    -0.79600
C609        C  0.50007672  0.06352867  0.89582645     1.01200
C610        C  0.00008133  0.06352966  0.77093185     1.08600
O611        O  0.00008650  0.49971071  0.83337768    -1.08500
O612        O  0.96091495  0.42992558  0.78555371    -0.71000
O613        O  0.93031503  0.46055762  0.78554775    -0.74500
O614        O  0.53068801  0.06949513  0.88120710    -0.75100
C615        C  0.93627250  0.43589845  0.77095834     1.00100
O616        O  0.93030578  0.46054162  0.88125130    -0.73100
O617        O  0.53924552  0.46908881  0.78549563    -0.78300
C618        C  0.56390653  0.49970528  0.89579386     1.02700
C619        C  0.56389919  0.49969874  0.77089854     1.08700
O620        O  0.56985850  0.03031841  0.88120701    -0.73900
C621        C  0.93627964  0.43589955  0.89585536     1.07000
C622        C  0.60362613  0.49969150  0.70507854    -0.09300
C623        C  0.58592634  0.49969566  0.73564321    -0.10800
C624        C  0.58593458  0.49969877  0.93102664    -0.09300
C625        C  0.60363221  0.49969060  0.96157564    -0.10800
C626        C  0.00007476  0.08555851  0.93107120    -0.09300
C627        C  0.00007219  0.10325883  0.96162900    -0.10800
C628        C  0.00007584  0.08555689  0.73568796    -0.09300
C629        C  0.00006932  0.10325565  0.70513188    -0.10800
C630        C  0.91425228  0.41387264  0.93110897    -0.09300
C631        C  0.89655158  0.39617188  0.96167156    -0.10800
C632        C  0.89654673  0.39616675  0.70517630    -0.09300
C633        C  0.91424513  0.41386844  0.73572481    -0.10800
C634        C  0.61179735  0.25929463  0.00006092    -0.14500
C635        C  0.58762207  0.22766541  0.00005038     0.09600
C636        C  0.55854670  0.19098438  0.00004137     0.11400
C637        C  0.53276496  0.16012668  0.00003979    -0.15400
C638        C  0.62780083  0.46698167  0.99999248    -0.14500
C639        C  0.63288944  0.44120167  0.00000729     0.09600
C640        C  0.64051789  0.41213469  0.00003126     0.11400
C641        C  0.64798856  0.38796464  0.00005153    -0.15400
C642        C  0.83967679  0.37199798  0.66677762    -0.14500
C643        C  0.80880423  0.36689124  0.66678595     0.09600
C644        C  0.77210359  0.35923683  0.66678965     0.11400
C645        C  0.74046250  0.35175280  0.66678582    -0.15400
C646        C  0.66049758  0.03238369  0.99997599    -0.14500
C647        C  0.69135606  0.05816264  0.99997217     0.09600
C648        C  0.72803876  0.08723446  0.99997542     0.11400
C649        C  0.75966809  0.11140717  0.99998518    -0.15400
C650        C  0.85212737  0.24007528  0.66672000    -0.14500
C651        C  0.85961497  0.27171850  0.66673310     0.09600
C652        C  0.86727310  0.30842140  0.66674852     0.11400
C653        C  0.87238095  0.33929528  0.66675871    -0.15400
C654        C  0.88833517  0.14759764  0.00005510    -0.14500
C655        C  0.91250865  0.14013272  0.00006263     0.09600
C656        C  0.94158106  0.13251351  0.00006562     0.11400
C657        C  0.96736389  0.12743034  0.00006176    -0.15400
C658        C  0.84250533  0.70219425  0.00003935     0.84200
N659        N  0.86919993  0.69305460  0.00005267    -0.74100
C660        C  0.86007552  0.65722203  0.33337522     0.86700
N661        N  0.82424959  0.63053155  0.33335164    -0.74000
C662        C  0.79754439  0.63966358  0.33333835     0.86800
N663        N  0.80667430  0.67549277  0.00001577    -0.75700
C664        C  0.70258302  0.84213223  0.00010484     0.84200
N665        N  0.67588171  0.80630045  0.00009516    -0.74100
C666        C  0.64005443  0.79717149  0.00007418     0.86700
N667        N  0.63092277  0.82387784  0.33339506    -0.74000
C668        C  0.65761383  0.85970465  0.00007103     0.86800
N669        N  0.69344479  0.86882838  0.00009222    -0.75700
C670        C  0.87631260  0.87593135  0.00009668     0.01200
C671        C  0.00006706  0.62349625  0.33338196     0.01500
C672        C  0.62386706  0.99968628  0.33332140     0.01500
Fe673      Fe  0.95293091  0.99971605  0.16673263     1.65800
Fe674      Fe  0.50009116  0.95255347  0.16670932     1.73200
Fe675      Fe  0.54723699  0.54686186  0.16669063     1.54400
O676        O  0.53069348  0.56948324  0.11883849    -0.77700
O677        O  0.53926819  0.96909640  0.21453025    -0.76000
O678        O  0.96947297  0.53889075  0.11888468    -0.80200
O679        O  0.96946748  0.53887528  0.21458568    -0.75000
O680        O  0.56986804  0.53031096  0.11883792    -0.76800
O681        O  0.96093718  0.92994067  0.21459021    -0.79600
C682        C  0.50007677  0.56352882  0.22915963     1.01200
C683        C  0.00008149  0.56352966  0.10426499     1.08600
O684        O  0.00008652  0.99971063  0.16671092    -1.08500
O685        O  0.96091496  0.92992557  0.11888712    -0.71000
O686        O  0.93031515  0.96055772  0.11888100    -0.74500
O687        O  0.53068800  0.56949515  0.21454021    -0.75100
C688        C  0.93627256  0.93589849  0.10429170     1.00100
O689        O  0.93030587  0.96054165  0.21458459    -0.73100
O690        O  0.53924556  0.96908872  0.11882904    -0.78300
C691        C  0.56390628  0.99970518  0.22912710     1.02700
C692        C  0.56389911  0.99969858  0.10423183     1.08700
O693        O  0.56985856  0.53031840  0.21454022    -0.73900
C694        C  0.93627972  0.93589937  0.22918867     1.07000
C695        C  0.60362623  0.99969137  0.03841189    -0.09300
C696        C  0.58592632  0.99969551  0.06897654    -0.10800
C697        C  0.58593460  0.99969883  0.26436017    -0.09300
C698        C  0.60363207  0.99969077  0.29490896    -0.10800
C699        C  0.00007469  0.58555839  0.26440432    -0.09300
C700        C  0.00007217  0.60325889  0.29496233    -0.10800
C701        C  0.00007589  0.58555694  0.06902141    -0.09300
C702        C  0.00006948  0.60325577  0.03846520    -0.10800
C703        C  0.91425227  0.91387267  0.26444217    -0.09300
C704        C  0.89655142  0.89617193  0.29500476    -0.10800
C705        C  0.89654695  0.89616688  0.03850951    -0.09300
C706        C  0.91424517  0.91386838  0.06905814    -0.10800
C707        C  0.61179715  0.75929462  0.33339447    -0.14500
C708        C  0.58762197  0.72766547  0.33338370     0.09600
C709        C  0.55854667  0.69098440  0.33337471     0.11400
C710        C  0.53276482  0.66012673  0.33337320    -0.15400
C711        C  0.62780071  0.96698172  0.33332596    -0.14500
C712        C  0.63288934  0.94120171  0.33334088     0.09600
C713        C  0.64051778  0.91213476  0.33336474     0.11400
C714        C  0.64798847  0.88796466  0.33338492    -0.15400
C715        C  0.83967693  0.87199802  0.00011089    -0.14500
C716        C  0.80880439  0.86689127  0.00011923     0.09600
C717        C  0.77210394  0.85923700  0.00012283     0.11400
C718        C  0.74046245  0.85175267  0.00011911    -0.15400
C719        C  0.66049742  0.53238361  0.33330958    -0.14500
C720        C  0.69135609  0.55816289  0.33330581     0.09600
C721        C  0.72803845  0.58723441  0.33330912     0.11400
C722        C  0.75966814  0.61140739  0.33331876    -0.15400
C723        C  0.85212738  0.74007509  0.00005335    -0.14500
C724        C  0.85961502  0.77171859  0.00006645     0.09600
C725        C  0.86727315  0.80842134  0.00008183     0.11400
C726        C  0.87238098  0.83929527  0.00009197    -0.15400
C727        C  0.88833501  0.64759770  0.33338820    -0.14500
C728        C  0.91250850  0.64013272  0.33339579     0.09600
C729        C  0.94158091  0.63251351  0.33339882     0.11400
C730        C  0.96736372  0.62743033  0.33339491    -0.15400
C731        C  0.84250518  0.70219355  0.33337277     0.84200
N732        N  0.86919974  0.69305506  0.33338583    -0.74100
C733        C  0.86007575  0.65722245  0.66670876     0.86700
N734        N  0.82424948  0.63053133  0.66668492    -0.74000
C735        C  0.79754468  0.63966406  0.66667155     0.86800
N736        N  0.80667435  0.67549334  0.33334923    -0.75700
C737        C  0.70258249  0.84213241  0.33343820     0.84200
N738        N  0.67588183  0.80630042  0.33342859    -0.74100
C739        C  0.64005382  0.79717171  0.33340755     0.86700
N740        N  0.63092250  0.82387787  0.66672818    -0.74000
C741        C  0.65761328  0.85970493  0.33340460     0.86800
N742        N  0.69344486  0.86882826  0.33342557    -0.75700
C743        C  0.87631250  0.87593139  0.33342985     0.01200
C744        C  0.00006708  0.62349624  0.66671548     0.01500
C745        C  0.62386700  0.99968634  0.66665443     0.01500
Fe746      Fe  0.95293055  0.99971599  0.50006590     1.65800
Fe747      Fe  0.50009087  0.95255340  0.50004262     1.73200
Fe748      Fe  0.54723674  0.54686183  0.50002402     1.54400
O749        O  0.53069321  0.56948320  0.45217193    -0.77700
O750        O  0.53926789  0.96909635  0.54786365    -0.76000
O751        O  0.96947270  0.53889070  0.45221788    -0.80200
O752        O  0.96946731  0.53887531  0.54791900    -0.75000
O753        O  0.56986779  0.53031098  0.45217127    -0.76800
O754        O  0.96093692  0.92994066  0.54792367    -0.79600
C755        C  0.50007672  0.56352882  0.56249298     1.01200
C756        C  0.00008115  0.56352959  0.43759850     1.08600
O757        O  0.00008615  0.99971059  0.50004424    -1.08500
O758        O  0.96091460  0.92992545  0.45222050    -0.71000
O759        O  0.93031487  0.96055768  0.45221438    -0.74500
O760        O  0.53068778  0.56949511  0.54787362    -0.75100
C761        C  0.93627243  0.93589840  0.43762495     1.00100
O762        O  0.93030556  0.96054161  0.54791782    -0.73100
O763        O  0.53924520  0.96908871  0.45216236    -0.78300
C764        C  0.56390603  0.99970514  0.56246047     1.02700
C765        C  0.56389874  0.99969859  0.43756530     1.08700
O766        O  0.56985832  0.53031836  0.54787367    -0.73900
C767        C  0.93627943  0.93589933  0.56252204     1.07000
C768        C  0.60362595  0.99969137  0.37174555    -0.09300
C769        C  0.58592598  0.99969543  0.40230991    -0.10800
C770        C  0.58593441  0.99969879  0.59769339    -0.09300
C771        C  0.60363192  0.99969064  0.62824211    -0.10800
C772        C  0.00007455  0.58555845  0.59773782    -0.09300
C773        C  0.00007202  0.60325878  0.62829572    -0.10800
C774        C  0.00007563  0.58555695  0.40235458    -0.09300
C775        C  0.00006920  0.60325562  0.37179850    -0.10800
C776        C  0.91425209  0.91387274  0.59777559    -0.09300
C777        C  0.89655135  0.89617183  0.62833824    -0.10800
C778        C  0.89654674  0.89616678  0.37184282    -0.09300
C779        C  0.91424497  0.91386837  0.40239147    -0.10800
C780        C  0.61179693  0.75929442  0.66672758    -0.14500
C781        C  0.58762211  0.72766567  0.66671686     0.09600
C782        C  0.55854651  0.69098430  0.66670804     0.11400
C783        C  0.53276495  0.66012683  0.66670650    -0.15400
C784        C  0.62780067  0.96698161  0.66665899    -0.14500
C785        C  0.63288933  0.94120193  0.66667383     0.09600
C786        C  0.64051780  0.91213455  0.66669789     0.11400
C787        C  0.64798843  0.88796491  0.66671810    -0.15400
C788        C  0.83967687  0.87199804  0.33344406    -0.14500
C789        C  0.80880418  0.86689135  0.33345237     0.09600
C790        C  0.77210372  0.85923696  0.33345600     0.11400
C791        C  0.74046237  0.85175279  0.33345246    -0.15400
C792        C  0.66049746  0.53238369  0.66664252    -0.14500
C793        C  0.69135597  0.55816274  0.66663865     0.09600
C794        C  0.72803863  0.58723459  0.66664192     0.11400
C795        C  0.75966794  0.61140724  0.66665177    -0.15400
C796        C  0.85212750  0.74007550  0.33338653    -0.14500
C797        C  0.85961492  0.77171834  0.33339976     0.09600
C798        C  0.86727307  0.80842146  0.33341513     0.11400
C799        C  0.87238099  0.83929524  0.33342530    -0.15400
C800        C  0.88833508  0.64759766  0.66672195    -0.14500
C801        C  0.91250851  0.64013268  0.66672943     0.09600
C802        C  0.94158091  0.63251344  0.66673250     0.11400
C803        C  0.96736377  0.62743032  0.66672870    -0.15400
C804        C  0.84250542  0.70219399  0.66670601     0.84200
N805        N  0.86919967  0.69305480  0.66671933    -0.74100
C806        C  0.86007557  0.65722275  0.00004210     0.86700
N807        N  0.82424980  0.63053118  0.00001830    -0.74000
C808        C  0.79754451  0.63966431  0.00000495     0.86800
N809        N  0.80667419  0.67549302  0.66668240    -0.75700
C810        C  0.70258283  0.84213238  0.66677158     0.84200
N811        N  0.67588149  0.80630036  0.66676186    -0.74100
C812        C  0.64005426  0.79717178  0.66674068     0.86700
N813        N  0.63092275  0.82387800  0.00006171    -0.74000
C814        C  0.65761374  0.85970486  0.66673774     0.86800
N815        N  0.69344456  0.86882828  0.66675884    -0.75700
C816        C  0.87631246  0.87593139  0.66676336     0.01200
C817        C  0.00006723  0.62349628  0.00004882     0.01500
C818        C  0.62386710  0.99968619  0.99998783     0.01500
Fe819      Fe  0.95293084  0.99971603  0.83339928     1.65800
Fe820      Fe  0.50009118  0.95255356  0.83337590     1.73200
Fe821      Fe  0.54723707  0.54686193  0.83335740     1.54400
O822        O  0.53069348  0.56948329  0.78550535    -0.77700
O823        O  0.53926812  0.96909643  0.88119684    -0.76000
O824        O  0.96947295  0.53889069  0.78555119    -0.80200
O825        O  0.96946750  0.53887532  0.88125233    -0.75000
O826        O  0.56986816  0.53031105  0.78550465    -0.76800
O827        O  0.96093712  0.92994067  0.88125678    -0.79600
C828        C  0.50007687  0.56352869  0.89582640     1.01200
C829        C  0.00008143  0.56352959  0.77093187     1.08600
O830        O  0.00008646  0.99971069  0.83337768    -1.08500
O831        O  0.96091491  0.92992554  0.78555374    -0.71000
O832        O  0.93031502  0.96055760  0.78554775    -0.74500
O833        O  0.53068801  0.56949508  0.88120711    -0.75100
C834        C  0.93627259  0.93589838  0.77095828     1.00100
O835        O  0.93030581  0.96054161  0.88125129    -0.73100
O836        O  0.53924548  0.96908884  0.78549560    -0.78300
C837        C  0.56390635  0.99970525  0.89579382     1.02700
C838        C  0.56389899  0.99969871  0.77089858     1.08700
O839        O  0.56985857  0.53031844  0.88120707    -0.73900
C840        C  0.93627971  0.93589943  0.89585534     1.07000
C841        C  0.60362603  0.99969149  0.70507866    -0.09300
C842        C  0.58592637  0.99969565  0.73564322    -0.10800
C843        C  0.58593459  0.99969877  0.93102666    -0.09300
C844        C  0.60363208  0.99969059  0.96157555    -0.10800
C845        C  0.00007475  0.58555855  0.93107110    -0.09300
C846        C  0.00007219  0.60325890  0.96162899    -0.10800
C847        C  0.00007590  0.58555700  0.73568796    -0.09300
C848        C  0.00006934  0.60325558  0.70513189    -0.10800
C849        C  0.91425229  0.91387263  0.93110898    -0.09300
C850        C  0.89655153  0.89617190  0.96167156    -0.10800
C851        C  0.89654665  0.89616680  0.70517631    -0.09300
C852        C  0.91424521  0.91386846  0.73572479    -0.10800
C853        C  0.61179720  0.75929454  0.00006092    -0.14500
C854        C  0.58762211  0.72766543  0.00005038     0.09600
C855        C  0.55854672  0.69098432  0.00004139     0.11400
C856        C  0.53276499  0.66012664  0.00003979    -0.15400
C857        C  0.62780092  0.96698163  0.99999235    -0.14500
C858        C  0.63288947  0.94120175  0.00000724     0.09600
C859        C  0.64051803  0.91213458  0.00003127     0.11400
C860        C  0.64798850  0.88796480  0.00005154    -0.15400
C861        C  0.83967683  0.87199801  0.66677769    -0.14500
C862        C  0.80880420  0.86689128  0.66678600     0.09600
C863        C  0.77210375  0.85923696  0.66678965     0.11400
C864        C  0.74046230  0.85175284  0.66678577    -0.15400
C865        C  0.66049743  0.53238362  0.99997597    -0.14500
C866        C  0.69135621  0.55816275  0.99997214     0.09600
C867        C  0.72803855  0.58723445  0.99997542     0.11400
C868        C  0.75966816  0.61140720  0.99998518    -0.15400
C869        C  0.85212749  0.74007536  0.66672000    -0.14500
C870        C  0.85961497  0.77171851  0.66673309     0.09600
C871        C  0.86727307  0.80842143  0.66674851     0.11400
C872        C  0.87238099  0.83929531  0.66675874    -0.15400
C873        C  0.88833540  0.64759748  0.00005510    -0.14500
C874        C  0.91250836  0.64013281  0.00006264     0.09600
C875        C  0.94158132  0.63251349  0.00006561     0.11400
C876        C  0.96736365  0.62743032  0.00006173    -0.15400
loop_ 
_geom_bond_atom_site_label_1 
_geom_bond_atom_site_label_2 
_geom_bond_distance 
_geom_bond_site_symmetry_2 
_ccdc_geom_bond_type 
C1            N2   1.357       .  A
C1            N6   1.357       .  A
C1           C66   1.435       .  S
N2          C149   1.357       .  A
C3            N4   1.357       .  A
C3           N75   1.357       .  A
C3           C70   1.435       .  S
N4            C5   1.357       .  A
C5           N79   1.357       .  A
C5           C65   1.435       .  S
N6          C151   1.357       .  A
C7            N8   1.357       .  A
C7           N12   1.357       .  A
C7           C61   1.435       .  S
N8            C9   1.357       .  A
C9          N156   1.357       .  A
C9          C196   1.435       .  S
N10          C82   1.357       .  A
N10          C84   1.357       .  A
C11          N12   1.357       .  A
C11         N156   1.357       .  A
C11         C203   1.435       .  S
C13          C48   1.466       .  S
C13          C58   1.466       .  S
C13          C69   1.466       .  S
C13         C193   1.466   1_554  S
C14          C43   1.466       .  S
C14          C73   1.466       .  S
C14         C118   1.466       .  S
C14         C491   1.466       .  S
C15          C41   1.466       .  S
C15          C54   1.466       .  S
C15         C111   1.466       .  S
C15         C281   1.466       .  S
Fe16         O32   2.064       .  S
Fe16         O29   2.064       .  S
Fe16        O241   2.064       .  S
Fe16        O240   2.064       .  S
Fe16         O27   1.984       .  S
Fe17         O20   2.064       .  S
Fe17         O33   2.064       .  S
Fe17        O462   2.064   1_455  S
Fe17        O466   2.064   1_455  S
Fe17        O465   1.984       .  S
Fe18         O36   2.064       .  S
Fe18         O23   2.064       .  S
Fe18         O30   2.064       .  S
Fe18         O19   2.064       .  S
Fe18        O684   1.984   1_545  S
O19         C464   1.267       .  A
O20          C34   1.267       .  A
O21        Fe235   2.064   1_545  S
O21          C26   1.267       .  A
O22        Fe235   2.064   1_545  S
O22         C463   1.267       .  A
O23         C254   1.267   1_545  A
O24        Fe455   2.064       .  S
O24          C37   1.267       .  A
C25         C480   1.434       .  S
C25          O30   1.267       .  A
C25         O460   1.267   1_455  A
C26          C44   1.434       .  S
C26         O457   1.267       .  A
O27        Fe455   1.984       .  S
O27        Fe675   1.984       .  S
O28        Fe455   2.064       .  S
O28          C31   1.267       .  A
O29          C31   1.267       .  A
C31          C49   1.434       .  S
O32          C37   1.267       .  A
O33          C35   1.267       .  A
C34          C40   1.434       .  S
C34         O255   1.267       .  A
C35          C39   1.434       .  S
C35         O242   1.267       .  A
O36         C253   1.267   1_545  A
C37          C46   1.434       .  S
C38         C161   1.466   1_554  S
C38          C39   1.206       .  T
C40          C41   1.206       .  T
C42         C463   1.434       .  S
C42          C43   1.206       .  T
C44          C45   1.206       .  T
C45         C160   1.466       .  S
C46          C47   1.206       .  T
C47          C86   1.466       .  S
C48          C49   1.206       .  T
C50          C82   1.435       .  S
C50          C51   1.205       .  T
C51          C52   1.411       .  S
C52          C53   1.206       .  T
C53         C452   1.466       .  S
C54          C55   1.206       .  T
C55          C56   1.411       .  S
C56          C57   1.205       .  T
C57          C84   1.435       .  S
C58          C59   1.206       .  T
C59          C60   1.411       .  S
C60          C61   1.205       .  T
C62         C234   1.466   1_545  S
C62          C63   1.206       .  T
C63          C64   1.411       .  S
C64          C65   1.205       .  T
C66          C67   1.205       .  T
C67          C68   1.411       .  S
C68          C69   1.206       .  T
C70          C71   1.205       .  T
C71          C72   1.411       .  S
C72          C73   1.206       .  T
C74          N75   1.357       .  A
C74          N79   1.357       .  A
C74         C139   1.435       .  S
C76         N148   1.357       .  A
C76          N77   1.357       .  A
C76         C143   1.435       .  S
N77          C78   1.357       .  A
C78         N152   1.357       .  A
C78         C138   1.435       .  S
C80          N81   1.357       .  A
C80          N85   1.357       .  A
C80         C134   1.435       .  S
N81          C82   1.357       .  A
N83         C155   1.357       .  A
N83         C157   1.357       .  A
C84          N85   1.357       .  A
C86         C121   1.466       .  S
C86         C131   1.466       .  S
C86         C142   1.466       .  S
C87         C116   1.466       .  S
C87         C191   1.466       .  S
C87         C564   1.466       .  S
C87         C146   1.466       .  S
C88         C184   1.466       .  S
C88         C114   1.466       .  S
C88         C127   1.466       .  S
C88         C354   1.466       .  S
Fe89        O105   2.064       .  S
Fe89        O314   2.064       .  S
Fe89        O102   2.064       .  S
Fe89        O313   2.064       .  S
Fe89        O100   1.984       .  S
Fe90         O93   2.064       .  S
Fe90        O535   2.064   1_455  S
Fe90        O539   2.064   1_455  S
Fe90        O106   2.064       .  S
Fe90        O538   1.984       .  S
Fe91        O109   2.064       .  S
Fe91         O96   2.064       .  S
Fe91        O103   2.064       .  S
Fe91         O92   2.064       .  S
Fe91        O757   1.984   1_545  S
O92         C537   1.267       .  A
O93         C107   1.267       .  A
O94        Fe308   2.064   1_545  S
O94          C99   1.267       .  A
O95        Fe308   2.064   1_545  S
O95         C536   1.267       .  A
O96         C327   1.267   1_545  A
O97        Fe528   2.064       .  S
O97         C110   1.267       .  A
C98         C553   1.434       .  S
C98         O533   1.267   1_455  A
C98         O103   1.267       .  A
C99         C117   1.434       .  S
C99         O530   1.267       .  A
O100       Fe528   1.984       .  S
O100       Fe748   1.984       .  S
O101       Fe528   2.064       .  S
O101        C104   1.267       .  A
O102        C104   1.267       .  A
C104        C122   1.434       .  S
O105        C110   1.267       .  A
O106        C108   1.267       .  A
C107        C113   1.434       .  S
C107        O328   1.267       .  A
C108        C112   1.434       .  S
C108        O315   1.267       .  A
O109        C326   1.267   1_545  A
C110        C119   1.434       .  S
C111        C112   1.206       .  T
C113        C114   1.206       .  T
C115        C536   1.434       .  S
C115        C116   1.206       .  T
C117        C118   1.206       .  T
C119        C120   1.206       .  T
C120        C159   1.466       .  S
C121        C122   1.206       .  T
C123        C155   1.435       .  S
C123        C124   1.205       .  T
C124        C125   1.411       .  S
C125        C126   1.206       .  T
C126        C525   1.466       .  S
C127        C128   1.206       .  T
C128        C129   1.411       .  S
C129        C130   1.205       .  T
C130        C157   1.435       .  S
C131        C132   1.206       .  T
C132        C133   1.411       .  S
C133        C134   1.205       .  T
C135        C307   1.466   1_545  S
C135        C136   1.206       .  T
C136        C137   1.411       .  S
C137        C138   1.205       .  T
C139        C140   1.205       .  T
C140        C141   1.411       .  S
C141        C142   1.206       .  T
C143        C144   1.205       .  T
C144        C145   1.411       .  S
C145        C146   1.206       .  T
C147        N148   1.357       .  A
C147        N152   1.357       .  A
C147        C212   1.435       .  S
C149        N150   1.357       .  A
C149        C216   1.435       .  S
N150        C151   1.357       .  A
C151        C211   1.435   1_554  S
C153        N154   1.357       .  A
C153        N158   1.357       .  A
C153        C207   1.435       .  S
N154        C155   1.357       .  A
C157        N158   1.357       .  A
C159        C194   1.466       .  S
C159        C204   1.466       .  S
C159        C215   1.466       .  S
C160        C189   1.466   1_554  S
C160        C637   1.466       .  S
C160        C219   1.466       .  S
C161        C187   1.466       .  S
C161        C200   1.466       .  S
C161        C427   1.466       .  S
Fe162       O178   2.064       .  S
Fe162       O387   2.064       .  S
Fe162       O175   2.064       .  S
Fe162       O386   2.064       .  S
Fe162       O173   1.984       .  S
Fe163       O166   2.064       .  S
Fe163       O608   2.064   1_455  S
Fe163       O612   2.064   1_455  S
Fe163       O179   2.064       .  S
Fe163       O611   1.984       .  S
Fe164       O182   2.064       .  S
Fe164       O169   2.064       .  S
Fe164       O176   2.064       .  S
Fe164       O165   2.064       .  S
Fe164       O830   1.984   1_545  S
O165        C610   1.267       .  A
O166        C180   1.267       .  A
O167       Fe381   2.064   1_545  S
O167        C172   1.267       .  A
O168       Fe381   2.064   1_545  S
O168        C609   1.267       .  A
O169        C400   1.267   1_545  A
O170       Fe601   2.064       .  S
O170        C183   1.267       .  A
C171        C626   1.434       .  S
C171        O606   1.267   1_455  A
C171        O176   1.267       .  A
C172        C190   1.434       .  S
C172        O603   1.267       .  A
O173       Fe601   1.984       .  S
O173       Fe821   1.984       .  S
O174       Fe601   2.064       .  S
O174        C177   1.267       .  A
O175        C177   1.267       .  A
C177        C195   1.434       .  S
O178        C183   1.267       .  A
O179        C181   1.267       .  A
C180        C186   1.434       .  S
C180        O401   1.267       .  A
C181        C185   1.434       .  S
C181        O388   1.267       .  A
O182        C399   1.267   1_545  A
C183        C192   1.434       .  S
C184        C185   1.206       .  T
C186        C187   1.206       .  T
C188        C609   1.434       .  S
C188        C189   1.206       .  T
C190        C191   1.206       .  T
C192        C193   1.206       .  T
C194        C195   1.206       .  T
C196        C197   1.205       .  T
C197        C198   1.411       .  S
C198        C199   1.206       .  T
C199        C598   1.466       .  S
C200        C201   1.206   1_556  T
C201        C202   1.411       .  S
C202        C203   1.205       .  T
C204        C205   1.206       .  T
C205        C206   1.411       .  S
C206        C207   1.205       .  T
C208        C380   1.466   1_545  S
C208        C209   1.206       .  T
C209        C210   1.411       .  S
C210        C211   1.205       .  T
C212        C213   1.205       .  T
C213        C214   1.411       .  S
C214        C215   1.206       .  T
C216        C217   1.205       .  T
C217        C218   1.411       .  S
C218        C219   1.206       .  T
C220        N221   1.357       .  A
C220        N225   1.357       .  A
C220        C285   1.435       .  S
N221        C368   1.357       .  A
C222        N294   1.357       .  A
C222        N223   1.357       .  A
C222        C289   1.435       .  S
N223        C224   1.357       .  A
C224        N298   1.357       .  A
C224        C284   1.435       .  S
N225        C370   1.357       .  A
C226        N227   1.357       .  A
C226        N231   1.357       .  A
C226        C280   1.435       .  S
N227        C228   1.357       .  A
C228        N375   1.357       .  A
C228        C415   1.435       .  S
N229        C301   1.357       .  A
N229        C303   1.357       .  A
C230        N375   1.357       .  A
C230        N231   1.357       .  A
C230        C422   1.435       .  S
C232        C412   1.466   1_554  S
C232        C267   1.466       .  S
C232        C277   1.466       .  S
C232        C288   1.466       .  S
C233        C262   1.466       .  S
C233        C337   1.466       .  S
C233        C710   1.466       .  S
C233        C292   1.466       .  S
C234        C330   1.466       .  S
C234        C260   1.466       .  S
C234        C273   1.466       .  S
Fe235       O251   2.064       .  S
Fe235       O248   2.064       .  S
Fe235       O246   1.984       .  S
Fe236       O239   2.064       .  S
Fe236       O681   2.064   1_455  S
Fe236       O685   2.064   1_455  S
Fe236       O252   2.064       .  S
Fe236       O684   1.984       .  S
Fe237       O255   2.064       .  S
Fe237       O242   2.064       .  S
Fe237       O249   2.064       .  S
Fe237       O238   2.064       .  S
Fe237       O465   1.984       .  S
O238        C683   1.267       .  A
O239        C253   1.267       .  A
O240        C245   1.267       .  A
O241        C682   1.267       .  A
O243       Fe674   2.064       .  S
O243        C256   1.267       .  A
C244        C699   1.434       .  S
C244        O679   1.267   1_455  A
C244        O249   1.267       .  A
C245        C263   1.434       .  S
C245        O676   1.267       .  A
O246       Fe674   1.984       .  S
O246       Fe456   1.984   1_565  S
O247       Fe674   2.064       .  S
O247        C250   1.267       .  A
O248        C250   1.267       .  A
C250        C268   1.434       .  S
O251        C256   1.267       .  A
O252        C254   1.267       .  A
C253        C259   1.434       .  S
C254        C258   1.434       .  S
C256        C265   1.434       .  S
C257        C380   1.466   1_554  S
C257        C258   1.206       .  T
C259        C260   1.206       .  T
C261        C682   1.434       .  S
C261        C262   1.206       .  T
C263        C264   1.206       .  T
C264        C379   1.466       .  S
C265        C266   1.206       .  T
C266        C305   1.466       .  S
C267        C268   1.206       .  T
C269        C301   1.435       .  S
C269        C270   1.205       .  T
C270        C271   1.411       .  S
C271        C272   1.206       .  T
C272        C671   1.466       .  S
C273        C274   1.206       .  T
C274        C275   1.411       .  S
C275        C276   1.205       .  T
C276        C303   1.435       .  S
C277        C278   1.206       .  T
C278        C279   1.411       .  S
C279        C280   1.205       .  T
C281        C282   1.206       .  T
C282        C283   1.411       .  S
C283        C284   1.205       .  T
C285        C286   1.205       .  T
C286        C287   1.411       .  S
C287        C288   1.206       .  T
C289        C290   1.205       .  T
C290        C291   1.411       .  S
C291        C292   1.206       .  T
C293        N294   1.357       .  A
C293        N298   1.357       .  A
C293        C358   1.435       .  S
C295        N367   1.357       .  A
C295        N296   1.357       .  A
C295        C362   1.435       .  S
N296        C297   1.357       .  A
C297        N371   1.357       .  A
C297        C357   1.435       .  S
C299        N300   1.357       .  A
C299        N304   1.357       .  A
C299        C353   1.435       .  S
N300        C301   1.357       .  A
N302        C374   1.357       .  A
N302        C376   1.357       .  A
C303        N304   1.357       .  A
C305        C340   1.466       .  S
C305        C350   1.466       .  S
C305        C361   1.466       .  S
C306        C335   1.466       .  S
C306        C410   1.466       .  S
C306        C783   1.466       .  S
C306        C365   1.466       .  S
C307        C403   1.466       .  S
C307        C333   1.466       .  S
C307        C346   1.466       .  S
Fe308       O324   2.064       .  S
Fe308       O321   2.064       .  S
Fe308       O319   1.984       .  S
Fe309       O312   2.064       .  S
Fe309       O754   2.064   1_455  S
Fe309       O758   2.064   1_455  S
Fe309       O325   2.064       .  S
Fe309       O757   1.984       .  S
Fe310       O328   2.064       .  S
Fe310       O315   2.064       .  S
Fe310       O322   2.064       .  S
Fe310       O311   2.064       .  S
Fe310       O538   1.984       .  S
O311        C756   1.267       .  A
O312        C326   1.267       .  A
O313        C318   1.267       .  A
O314        C755   1.267       .  A
O316       Fe747   2.064       .  S
O316        C329   1.267       .  A
C317        C772   1.434       .  S
C317        O752   1.267   1_455  A
C317        O322   1.267       .  A
C318        C336   1.434       .  S
C318        O749   1.267       .  A
O319       Fe747   1.984       .  S
O319       Fe529   1.984   1_565  S
O320       Fe747   2.064       .  S
O320        C323   1.267       .  A
O321        C323   1.267       .  A
C323        C341   1.434       .  S
O324        C329   1.267       .  A
O325        C327   1.267       .  A
C326        C332   1.434       .  S
C327        C331   1.434       .  S
C329        C338   1.434       .  S
C330        C331   1.206       .  T
C332        C333   1.206       .  T
C334        C755   1.434       .  S
C334        C335   1.206       .  T
C336        C337   1.206       .  T
C338        C339   1.206       .  T
C339        C378   1.466       .  S
C340        C341   1.206       .  T
C342        C374   1.435       .  S
C342        C343   1.205       .  T
C343        C344   1.411       .  S
C344        C345   1.206       .  T
C345        C744   1.466       .  S
C346        C347   1.206       .  T
C347        C348   1.411       .  S
C348        C349   1.205       .  T
C349        C376   1.435       .  S
C350        C351   1.206       .  T
C351        C352   1.411       .  S
C352        C353   1.205       .  T
C354        C355   1.206       .  T
C355        C356   1.411       .  S
C356        C357   1.205       .  T
C358        C359   1.205       .  T
C359        C360   1.411       .  S
C360        C361   1.206       .  T
C362        C363   1.205       .  T
C363        C364   1.411       .  S
C364        C365   1.206       .  T
C366        N367   1.357       .  A
C366        N371   1.357       .  A
C366        C431   1.435       .  S
C368        N369   1.357       .  A
C368        C435   1.435       .  S
N369        C370   1.357       .  A
C370        C430   1.435   1_554  S
C372        N373   1.357       .  A
C372        N377   1.357       .  A
C372        C426   1.435       .  S
N373        C374   1.357       .  A
C376        N377   1.357       .  A
C378        C413   1.466       .  S
C378        C423   1.466       .  S
C378        C434   1.466       .  S
C379        C408   1.466   1_554  S
C379        C856   1.466       .  S
C379        C438   1.466       .  S
C380        C406   1.466       .  S
C380        C419   1.466       .  S
Fe381       O397   2.064       .  S
Fe381       O394   2.064       .  S
Fe381       O392   1.984       .  S
Fe382       O385   2.064       .  S
Fe382       O827   2.064   1_455  S
Fe382       O831   2.064   1_455  S
Fe382       O398   2.064       .  S
Fe382       O830   1.984       .  S
Fe383       O401   2.064       .  S
Fe383       O388   2.064       .  S
Fe383       O395   2.064       .  S
Fe383       O384   2.064       .  S
Fe383       O611   1.984       .  S
O384        C829   1.267       .  A
O385        C399   1.267       .  A
O386        C391   1.267       .  A
O387        C828   1.267       .  A
O389       Fe820   2.064       .  S
O389        C402   1.267       .  A
C390        C845   1.434       .  S
C390        O825   1.267   1_455  A
C390        O395   1.267       .  A
C391        C409   1.434       .  S
C391        O822   1.267       .  A
O392       Fe820   1.984       .  S
O392       Fe602   1.984   1_565  S
O393       Fe820   2.064       .  S
O393        C396   1.267       .  A
O394        C396   1.267       .  A
C396        C414   1.434       .  S
O397        C402   1.267       .  A
O398        C400   1.267       .  A
C399        C405   1.434       .  S
C400        C404   1.434       .  S
C402        C411   1.434       .  S
C403        C404   1.206       .  T
C405        C406   1.206       .  T
C407        C828   1.434       .  S
C407        C408   1.206       .  T
C409        C410   1.206       .  T
C411        C412   1.206       .  T
C413        C414   1.206       .  T
C415        C416   1.205       .  T
C416        C417   1.411       .  S
C417        C418   1.206       .  T
C418        C817   1.466       .  S
C419        C420   1.206   1_556  T
C420        C421   1.411       .  S
C421        C422   1.205       .  T
C423        C424   1.206       .  T
C424        C425   1.411       .  S
C425        C426   1.205       .  T
C427        C428   1.206       .  T
C428        C429   1.411       .  S
C429        C430   1.205       .  T
C431        C432   1.205       .  T
C432        C433   1.411       .  S
C433        C434   1.206       .  T
C435        C436   1.205       .  T
C436        C437   1.411       .  S
C437        C438   1.206       .  T
C439        N440   1.357       .  A
C439        N444   1.357       .  A
C439        C504   1.435       .  S
N440        C587   1.357       .  A
C441        N513   1.357       .  A
C441        N442   1.357       .  A
C441        C508   1.435       .  S
N442        C443   1.357       .  A
C443        N517   1.357       .  A
C443        C503   1.435       .  S
N444        C589   1.357       .  A
C445        N446   1.357       .  A
C445        N450   1.357       .  A
C445        C499   1.435       .  S
N446        C447   1.357       .  A
C447        N594   1.357       .  A
C447        C634   1.435       .  S
N448        C520   1.357       .  A
N448        C522   1.357       .  A
C449        N594   1.357       .  A
C449        N450   1.357       .  A
C449        C641   1.435       .  S
C451        C631   1.466   1_554  S
C451        C486   1.466       .  S
C451        C496   1.466       .  S
C451        C507   1.466       .  S
C452        C481   1.466       .  S
C452        C556   1.466       .  S
C452        C511   1.466   1_455  S
C453        C549   1.466       .  S
C453        C479   1.466       .  S
C453        C492   1.466       .  S
C453        C719   1.466       .  S
Fe454       O470   2.064       .  S
Fe454       O679   2.064       .  S
Fe454       O467   2.064       .  S
Fe454       O678   2.064       .  S
Fe454       O465   1.984   1_655  S
Fe455       O458   2.064       .  S
Fe455       O471   2.064       .  S
Fe456       O474   2.064       .  S
Fe456       O461   2.064       .  S
Fe456       O468   2.064       .  S
Fe456       O457   2.064       .  S
O458        C472   1.267       .  A
O459       Fe673   2.064   1_545  S
O459        C464   1.267   1_655  A
O460       Fe673   2.064   1_545  S
O461        C692   1.267   1_545  A
O462        C475   1.267       .  A
C463        O468   1.267       .  A
C464        C482   1.434       .  S
O466        C469   1.267       .  A
O467        C469   1.267       .  A
C469        C487   1.434       .  S
O470        C475   1.267       .  A
O471        C473   1.267       .  A
C472        C478   1.434       .  S
C472        O693   1.267       .  A
C473        C477   1.434       .  S
C473        O680   1.267       .  A
O474        C691   1.267   1_545  A
C475        C484   1.434       .  S
C476        C599   1.466   1_554  S
C476        C477   1.206       .  T
C478        C479   1.206       .  T
C480        C481   1.206       .  T
C482        C483   1.206       .  T
C483        C598   1.466       .  S
C484        C485   1.206       .  T
C485        C524   1.466       .  S
C486        C487   1.206       .  T
C488        C520   1.435       .  S
C488        C489   1.205       .  T
C489        C490   1.411       .  S
C490        C491   1.206       .  T
C492        C493   1.206       .  T
C493        C494   1.411       .  S
C494        C495   1.205       .  T
C495        C522   1.435       .  S
C496        C497   1.206       .  T
C497        C498   1.411       .  S
C498        C499   1.205       .  T
C500        C672   1.466   1_545  S
C500        C501   1.206       .  T
C501        C502   1.411       .  S
C502        C503   1.205       .  T
C504        C505   1.205       .  T
C505        C506   1.411       .  S
C506        C507   1.206       .  T
C508        C509   1.205       .  T
C509        C510   1.411       .  S
C510        C511   1.206       .  T
C512        N513   1.357       .  A
C512        N517   1.357       .  A
C512        C577   1.435       .  S
C514        N586   1.357       .  A
C514        N515   1.357       .  A
C514        C581   1.435       .  S
N515        C516   1.357       .  A
C516        N590   1.357       .  A
C516        C576   1.435       .  S
C518        N519   1.357       .  A
C518        N523   1.357       .  A
C518        C572   1.435       .  S
N519        C520   1.357       .  A
N521        C593   1.357       .  A
N521        C595   1.357       .  A
C522        N523   1.357       .  A
C524        C559   1.466       .  S
C524        C569   1.466       .  S
C524        C580   1.466       .  S
C525        C554   1.466       .  S
C525        C629   1.466       .  S
C525        C584   1.466   1_455  S
C526        C622   1.466       .  S
C526        C552   1.466       .  S
C526        C565   1.466       .  S
C526        C792   1.466       .  S
Fe527       O543   2.064       .  S
Fe527       O752   2.064       .  S
Fe527       O540   2.064       .  S
Fe527       O751   2.064       .  S
Fe527       O538   1.984   1_655  S
Fe528       O531   2.064       .  S
Fe528       O544   2.064       .  S
Fe529       O547   2.064       .  S
Fe529       O534   2.064       .  S
Fe529       O541   2.064       .  S
Fe529       O530   2.064       .  S
O531        C545   1.267       .  A
O532       Fe746   2.064   1_545  S
O532        C537   1.267   1_655  A
O533       Fe746   2.064   1_545  S
O534        C765   1.267   1_545  A
O535        C548   1.267       .  A
C536        O541   1.267       .  A
C537        C555   1.434       .  S
O539        C542   1.267       .  A
O540        C542   1.267       .  A
C542        C560   1.434       .  S
O543        C548   1.267       .  A
O544        C546   1.267       .  A
C545        C551   1.434       .  S
C545        O766   1.267       .  A
C546        C550   1.434       .  S
C546        O753   1.267       .  A
O547        C764   1.267   1_545  A
C548        C557   1.434       .  S
C549        C550   1.206       .  T
C551        C552   1.206       .  T
C553        C554   1.206       .  T
C555        C556   1.206       .  T
C557        C558   1.206       .  T
C558        C597   1.466       .  S
C559        C560   1.206       .  T
C561        C593   1.435       .  S
C561        C562   1.205       .  T
C562        C563   1.411       .  S
C563        C564   1.206       .  T
C565        C566   1.206       .  T
C566        C567   1.411       .  S
C567        C568   1.205       .  T
C568        C595   1.435       .  S
C569        C570   1.206       .  T
C570        C571   1.411       .  S
C571        C572   1.205       .  T
C573        C745   1.466   1_545  S
C573        C574   1.206       .  T
C574        C575   1.411       .  S
C575        C576   1.205       .  T
C577        C578   1.205       .  T
C578        C579   1.411       .  S
C579        C580   1.206       .  T
C581        C582   1.205       .  T
C582        C583   1.411       .  S
C583        C584   1.206       .  T
C585        N586   1.357       .  A
C585        N590   1.357       .  A
C585        C650   1.435       .  S
C587        N588   1.357       .  A
C587        C654   1.435       .  S
N588        C589   1.357       .  A
C589        C649   1.435   1_554  S
C591        N592   1.357       .  A
C591        N596   1.357       .  A
C591        C645   1.435       .  S
N592        C593   1.357       .  A
C595        N596   1.357       .  A
C597        C632   1.466       .  S
C597        C642   1.466       .  S
C597        C653   1.466       .  S
C598        C627   1.466   1_554  S
C598        C657   1.466   1_455  S
C599        C625   1.466       .  S
C599        C638   1.466       .  S
C599        C865   1.466       .  S
Fe600       O616   2.064       .  S
Fe600       O825   2.064       .  S
Fe600       O613   2.064       .  S
Fe600       O824   2.064       .  S
Fe600       O611   1.984   1_655  S
Fe601       O604   2.064       .  S
Fe601       O617   2.064       .  S
Fe602       O620   2.064       .  S
Fe602       O607   2.064       .  S
Fe602       O614   2.064       .  S
Fe602       O603   2.064       .  S
O604        C618   1.267       .  A
O605       Fe819   2.064   1_545  S
O605        C610   1.267   1_655  A
O606       Fe819   2.064   1_545  S
O607        C838   1.267   1_545  A
O608        C621   1.267       .  A
C609        O614   1.267       .  A
C610        C628   1.434       .  S
O612        C615   1.267       .  A
O613        C615   1.267       .  A
C615        C633   1.434       .  S
O616        C621   1.267       .  A
O617        C619   1.267       .  A
C618        C624   1.434       .  S
C618        O839   1.267       .  A
C619        C623   1.434       .  S
C619        O826   1.267       .  A
O620        C837   1.267   1_545  A
C621        C630   1.434       .  S
C622        C623   1.206       .  T
C624        C625   1.206       .  T
C626        C627   1.206       .  T
C628        C629   1.206       .  T
C630        C631   1.206       .  T
C632        C633   1.206       .  T
C634        C635   1.205       .  T
C635        C636   1.411       .  S
C636        C637   1.206       .  T
C638        C639   1.206   1_556  T
C639        C640   1.411       .  S
C640        C641   1.205       .  T
C642        C643   1.206       .  T
C643        C644   1.411       .  S
C644        C645   1.205       .  T
C646        C818   1.466   1_545  S
C646        C647   1.206       .  T
C647        C648   1.411       .  S
C648        C649   1.205       .  T
C650        C651   1.205       .  T
C651        C652   1.411       .  S
C652        C653   1.206       .  T
C654        C655   1.205       .  T
C655        C656   1.411       .  S
C656        C657   1.206       .  T
C658        N659   1.357       .  A
C658        N663   1.357       .  A
C658        C723   1.435       .  S
N659        C806   1.357       .  A
C660        N732   1.357       .  A
C660        N661   1.357       .  A
C660        C727   1.435       .  S
N661        C662   1.357       .  A
C662        N736   1.357       .  A
C662        C722   1.435       .  S
N663        C808   1.357       .  A
C664        N665   1.357       .  A
C664        N669   1.357       .  A
C664        C718   1.435       .  S
N665        C666   1.357       .  A
C666        N813   1.357       .  A
C666        C853   1.435       .  S
N667        C739   1.357       .  A
N667        C741   1.357       .  A
C668        N813   1.357       .  A
C668        N669   1.357       .  A
C668        C860   1.435       .  S
C670        C850   1.466   1_554  S
C670        C705   1.466       .  S
C670        C715   1.466       .  S
C670        C726   1.466       .  S
C671        C700   1.466       .  S
C671        C775   1.466       .  S
C671        C730   1.466   1_455  S
C672        C768   1.466       .  S
C672        C698   1.466       .  S
C672        C711   1.466       .  S
Fe673       O689   2.064       .  S
Fe673       O686   2.064       .  S
Fe673       O684   1.984   1_655  S
Fe674       O677   2.064       .  S
Fe674       O690   2.064       .  S
Fe675       O693   2.064       .  S
Fe675       O680   2.064       .  S
Fe675       O687   2.064       .  S
Fe675       O676   2.064       .  S
O677        C691   1.267       .  A
O678        C683   1.267   1_655  A
O681        C694   1.267       .  A
C682        O687   1.267       .  A
C683        C701   1.434       .  S
O685        C688   1.267       .  A
O686        C688   1.267       .  A
C688        C706   1.434       .  S
O689        C694   1.267       .  A
O690        C692   1.267       .  A
C691        C697   1.434       .  S
C692        C696   1.434       .  S
C694        C703   1.434       .  S
C695        C818   1.466   1_554  S
C695        C696   1.206       .  T
C697        C698   1.206       .  T
C699        C700   1.206       .  T
C701        C702   1.206       .  T
C702        C817   1.466       .  S
C703        C704   1.206       .  T
C704        C743   1.466       .  S
C705        C706   1.206       .  T
C707        C739   1.435       .  S
C707        C708   1.205       .  T
C708        C709   1.411       .  S
C709        C710   1.206       .  T
C711        C712   1.206       .  T
C712        C713   1.411       .  S
C713        C714   1.205       .  T
C714        C741   1.435       .  S
C715        C716   1.206       .  T
C716        C717   1.411       .  S
C717        C718   1.205       .  T
C719        C720   1.206       .  T
C720        C721   1.411       .  S
C721        C722   1.205       .  T
C723        C724   1.205       .  T
C724        C725   1.411       .  S
C725        C726   1.206       .  T
C727        C728   1.205       .  T
C728        C729   1.411       .  S
C729        C730   1.206       .  T
C731        N732   1.357       .  A
C731        N736   1.357       .  A
C731        C796   1.435       .  S
C733        N805   1.357       .  A
C733        N734   1.357       .  A
C733        C800   1.435       .  S
N734        C735   1.357       .  A
C735        N809   1.357       .  A
C735        C795   1.435       .  S
C737        N738   1.357       .  A
C737        N742   1.357       .  A
C737        C791   1.435       .  S
N738        C739   1.357       .  A
N740        C812   1.357       .  A
N740        C814   1.357       .  A
C741        N742   1.357       .  A
C743        C778   1.466       .  S
C743        C788   1.466       .  S
C743        C799   1.466       .  S
C744        C773   1.466       .  S
C744        C848   1.466       .  S
C744        C803   1.466   1_455  S
C745        C841   1.466       .  S
C745        C771   1.466       .  S
C745        C784   1.466       .  S
Fe746       O762   2.064       .  S
Fe746       O759   2.064       .  S
Fe746       O757   1.984   1_655  S
Fe747       O750   2.064       .  S
Fe747       O763   2.064       .  S
Fe748       O766   2.064       .  S
Fe748       O753   2.064       .  S
Fe748       O760   2.064       .  S
Fe748       O749   2.064       .  S
O750        C764   1.267       .  A
O751        C756   1.267   1_655  A
O754        C767   1.267       .  A
C755        O760   1.267       .  A
C756        C774   1.434       .  S
O758        C761   1.267       .  A
O759        C761   1.267       .  A
C761        C779   1.434       .  S
O762        C767   1.267       .  A
O763        C765   1.267       .  A
C764        C770   1.434       .  S
C765        C769   1.434       .  S
C767        C776   1.434       .  S
C768        C769   1.206       .  T
C770        C771   1.206       .  T
C772        C773   1.206       .  T
C774        C775   1.206       .  T
C776        C777   1.206       .  T
C777        C816   1.466       .  S
C778        C779   1.206       .  T
C780        C812   1.435       .  S
C780        C781   1.205       .  T
C781        C782   1.411       .  S
C782        C783   1.206       .  T
C784        C785   1.206       .  T
C785        C786   1.411       .  S
C786        C787   1.205       .  T
C787        C814   1.435       .  S
C788        C789   1.206       .  T
C789        C790   1.411       .  S
C790        C791   1.205       .  T
C792        C793   1.206       .  T
C793        C794   1.411       .  S
C794        C795   1.205       .  T
C796        C797   1.205       .  T
C797        C798   1.411       .  S
C798        C799   1.206       .  T
C800        C801   1.205       .  T
C801        C802   1.411       .  S
C802        C803   1.206       .  T
C804        N805   1.357       .  A
C804        N809   1.357       .  A
C804        C869   1.435       .  S
C806        N807   1.357       .  A
C806        C873   1.435       .  S
N807        C808   1.357       .  A
C808        C868   1.435   1_554  S
C810        N811   1.357       .  A
C810        N815   1.357       .  A
C810        C864   1.435       .  S
N811        C812   1.357       .  A
C814        N815   1.357       .  A
C816        C851   1.466       .  S
C816        C861   1.466       .  S
C816        C872   1.466       .  S
C817        C846   1.466   1_554  S
C817        C876   1.466   1_455  S
C818        C844   1.466       .  S
C818        C857   1.466       .  S
Fe819       O835   2.064       .  S
Fe819       O832   2.064       .  S
Fe819       O830   1.984   1_655  S
Fe820       O823   2.064       .  S
Fe820       O836   2.064       .  S
Fe821       O839   2.064       .  S
Fe821       O826   2.064       .  S
Fe821       O833   2.064       .  S
Fe821       O822   2.064       .  S
O823        C837   1.267       .  A
O824        C829   1.267   1_655  A
O827        C840   1.267       .  A
C828        O833   1.267       .  A
C829        C847   1.434       .  S
O831        C834   1.267       .  A
O832        C834   1.267       .  A
C834        C852   1.434       .  S
O835        C840   1.267       .  A
O836        C838   1.267       .  A
C837        C843   1.434       .  S
C838        C842   1.434       .  S
C840        C849   1.434       .  S
C841        C842   1.206       .  T
C843        C844   1.206       .  T
C845        C846   1.206       .  T
C847        C848   1.206       .  T
C849        C850   1.206       .  T
C851        C852   1.206       .  T
C853        C854   1.205       .  T
C854        C855   1.411       .  S
C855        C856   1.206       .  T
C857        C858   1.206   1_556  T
C858        C859   1.411       .  S
C859        C860   1.205       .  T
C861        C862   1.206       .  T
C862        C863   1.411       .  S
C863        C864   1.205       .  T
C865        C866   1.206       .  T
C866        C867   1.411       .  S
C867        C868   1.205       .  T
C869        C870   1.205       .  T
C870        C871   1.411       .  S
C871        C872   1.206       .  T
C873        C874   1.205       .  T
C874        C875   1.411       .  S
C875        C876   1.206       .  T
