geometry optimzed in LAMMPS
_audit_creation_date              2020-11-30 
_audit_creation_method            'lammps2cif' 
_symmetry_space_group_name_H-M    'P1' 
_symmetry_Int_Tables_number       1 
_symmetry_cell_setting            triclinic 
loop_ 
_symmetry_equiv_pos_as_xyz 
  x,y,z 
_cell_length_a                    41.2144753 
_cell_length_b                    41.52282808768034 
_cell_length_c                    32.0677548047051 
_cell_angle_alpha                 90.41404239531049 
_cell_angle_beta                  91.07650567836983 
_cell_angle_gamma                 90.00302000773428 
loop_ 
_atom_site_label 
_atom_site_type_symbol 
_atom_site_fract_x 
_atom_site_fract_y 
_atom_site_fract_z 
_atom_site_charge 
C1          C  0.24788330  0.11114817  0.39114063     0.85700
C2          C  0.21868693  0.13423929  0.39458167    -0.54500
C3          C  0.21966863  0.15974855  0.36766240     0.08700
C4          C  0.24958876  0.15934039  0.33982976     0.19600
C5          C  0.24821994  0.10084750  0.34510173    -0.55200
C6          C  0.24891431  0.12622592  0.31826624     0.08800
C7          C  0.27767863  0.13294315  0.39738449    -0.54700
C8          C  0.27844081  0.15804912  0.37054141     0.09300
H9          H  0.19942261  0.13106043  0.41682143     0.13900
H10         H  0.25086625  0.17941682  0.31730565    -0.00400
H11         H  0.24729708  0.07590521  0.33471004     0.14200
H12         H  0.29636486  0.12923317  0.42121615     0.14000
C13         C  0.07342138  0.28823988  0.38885157     0.85700
C14         C  0.09663390  0.31689573  0.39471705    -0.54500
C15         C  0.12166148  0.31689517  0.36749452     0.08700
C16         C  0.12100930  0.28829229  0.33687756     0.19600
C17         C  0.06219552  0.28933466  0.34303178    -0.55200
C18         C  0.08728812  0.28937949  0.31584735     0.08800
C19         C  0.09537041  0.25842780  0.39210783    -0.54700
C20         C  0.12015656  0.25825648  0.36451616     0.09300
H21         H  0.09332957  0.33571700  0.41794428     0.13900
H22         H  0.14119423  0.28837343  0.31439928    -0.00400
H23         H  0.03686786  0.28866858  0.33313238     0.14200
H24         H  0.09212873  0.23960295  0.41497978     0.14000
C25         C  0.42545898  0.28573175  0.38843501     0.85700
C26         C  0.40447923  0.25569095  0.39449300    -0.54500
C27         C  0.37778993  0.25456835  0.36913633     0.08700
C28         C  0.37397783  0.28370164  0.34017282     0.19600
C29         C  0.43306976  0.28601834  0.34155279    -0.55200
C30         C  0.40600109  0.28484110  0.31576832     0.08800
C31         C  0.40209425  0.31408696  0.39479685    -0.54700
C32         C  0.37500745  0.31316437  0.36965017     0.09300
H33         H  0.40990454  0.23702125  0.41714479     0.13900
H34         H  0.35178849  0.28319913  0.32029771    -0.00400
H35         H  0.45765900  0.28666947  0.33002695     0.14200
H36         H  0.40631973  0.33299372  0.41784377     0.14000
C37         C  0.24910921  0.46368138  0.39080760     0.85700
C38         C  0.27701428  0.43974904  0.39927065    -0.54500
C39         C  0.27752991  0.41423753  0.37212926     0.08700
C40         C  0.24976203  0.41483117  0.33954026     0.19600
C41         C  0.25256138  0.47337209  0.34494312    -0.55200
C42         C  0.25319959  0.44769304  0.31796996     0.08800
C43         C  0.21834051  0.44290876  0.39183703    -0.54700
C44         C  0.21862866  0.41736652  0.36489856     0.09300
H45         H  0.29462126  0.44263894  0.42463794     0.13900
H46         H  0.24962412  0.39383112  0.31791348    -0.00400
H47         H  0.25475091  0.99818449  0.33487862     0.14200
H48         H  0.19845171  0.44734235  0.41287469     0.14000
C49         C  0.25138494  0.11157679  0.06577342     0.85700
C50         C  0.28234307  0.13195192  0.06269833    -0.54500
C51         C  0.28353824  0.15721621  0.08981532     0.08700
C52         C  0.25394258  0.15963506  0.11812730     0.19600
C53         C  0.24993613  0.10126528  0.11153580    -0.55200
C54         C  0.25097963  0.12656865  0.13889075     0.08800
C55         C  0.22361467  0.13607212  0.06001456    -0.54700
C56         C  0.22456338  0.16145788  0.08778922     0.09300
H57         H  0.30078736  0.12806096  0.03943083     0.13900
H58         H  0.25610730  0.17896916  0.14180399    -0.00400
H59         H  0.24752114  0.07640806  0.12134713     0.14200
H60         H  0.20513847  0.13346331  0.03567493     0.14000
C61         C  0.07529624  0.28967250  0.06392603     0.85700
C62         C  0.09898352  0.26143708  0.05824818    -0.54500
C63         C  0.12355804  0.26024187  0.08749402     0.08700
C64         C  0.12277920  0.28891808  0.11835580     0.19600
C65         C  0.06401482  0.28755593  0.10905203    -0.55200
C66         C  0.08898374  0.28712329  0.13745607     0.08800
C67         C  0.09690402  0.31976825  0.06268719    -0.54700
C68         C  0.12191382  0.31944700  0.09118841     0.09300
H69         H  0.09657560  0.24441525  0.03258182     0.13900
H70         H  0.14241368  0.28923669  0.14246370    -0.00400
H71         H  0.03869521  0.28632229  0.11774829     0.14200
H72         H  0.09347451  0.33904815  0.04033043     0.14000
C73         C  0.42697899  0.28781779  0.06144597     0.85700
C74         C  0.40436529  0.31657414  0.05330083    -0.54500
C75         C  0.37799097  0.31716388  0.07797048     0.08700
C76         C  0.37616156  0.28903464  0.10844201     0.19600
C77         C  0.43535818  0.28951515  0.10852799    -0.55200
C78         C  0.40855545  0.29008773  0.13346481     0.08800
C79         C  0.40502800  0.25796551  0.05642998    -0.54700
C80         C  0.37853358  0.25864782  0.08117593     0.09300
H81         H  0.40883901  0.33509008  0.03034019     0.13900
H82         H  0.35409769  0.28987369  0.12777105    -0.00400
H83         H  0.46009128  0.28883690  0.12069812     0.14200
H84         H  0.40991835  0.23801634  0.03537439     0.14000
C85         C  0.25103660  0.46469068  0.06465566     0.85700
C86         C  0.22115702  0.44233993  0.06213179    -0.54500
C87         C  0.22313561  0.41648901  0.08827274     0.08700
C88         C  0.25469995  0.41573285  0.11461255     0.19600
C89         C  0.25420806  0.47431832  0.11089191    -0.55200
C90         C  0.25550774  0.44856772  0.13740008     0.08800
C91         C  0.28002286  0.44252803  0.05651312    -0.54700
C92         C  0.28215107  0.41723002  0.08285342     0.09300
H93         H  0.20056673  0.44626985  0.04115768     0.13900
H94         H  0.25630237  0.39477785  0.13577912    -0.00400
H95         H  0.25521584  0.99920353  0.12143055     0.14200
H96         H  0.29739833  0.44635412  0.03195935     0.14000
O97         O  0.03413904  0.31490799  0.43125859    -0.73700
O98         O  0.46700875  0.31430863  0.01984226    -0.74700
O99         O  0.03613678  0.31573207  0.01885148    -0.63300
O100        O  0.46535653  0.31372295  0.43129214    -0.71700
O101        O  0.46673909  0.26032519  0.43117771    -0.71300
O102        O  0.03591285  0.26229369  0.02048003    -0.62500
O103        O  0.46692398  0.26089165  0.01943431    -0.78800
O104        O  0.03559632  0.26148178  0.43287979    -0.73800
Cu105      Cu  0.50061542  0.31652977  0.47533703     1.04600
Cu106      Cu  0.50134705  0.25938869  0.47599724     1.04300
C107        C  0.04612426  0.28819672  0.41900529     0.92500
C108        C  0.45562414  0.28760754  0.03281701     0.91600
C109        C  0.04765476  0.28928492  0.03280500     0.83800
C110        C  0.45451081  0.28668063  0.41778188     0.90100
O111        O  0.27587461  0.00305045  0.43470065    -0.73700
O112        O  0.27661016  0.07301202  0.02066460    -0.74700
O113        O  0.27654014  0.00484706  0.02277076    -0.63300
O114        O  0.27499843  0.07131966  0.43312510    -0.71700
O115        O  0.22122142  0.07264389  0.43500516    -0.71300
O116        O  0.22271740  0.00308312  0.02121150    -0.62500
O117        O  0.22286865  0.07191180  0.02329899    -0.75000
O118        O  0.22203520  0.00347030  0.43336549    -0.73800
Cu119      Cu  0.27782883  0.03805681  0.47782774     1.04600
Cu120      Cu  0.22028061  0.03778416  0.47817589     1.04300
C121        C  0.24892527  0.49173293  0.42090095     0.92500
C122        C  0.25013431  0.08390095  0.03520350     0.91600
C123        C  0.24993369  0.49264433  0.03513142     0.83800
C124        C  0.24791477  0.08338286  0.42101982     0.90100
C125        C  0.35953558  0.37044616  0.10266359    -0.27100
C126        C  0.35424773  0.34355626  0.07683418    -0.15100
C127        C  0.32697389  0.34241912  0.04980423     0.35500
C128        C  0.30379351  0.36709492  0.05189853    -0.26500
C129        C  0.30802532  0.39296462  0.07973493    -0.15700
C130        C  0.33706698  0.39583858  0.10331483     0.36600
N131        N  0.34452330  0.42517165  0.12557628    -0.90000
H132        H  0.38147794  0.37178707  0.12177225     0.17700
H133        H  0.28242703  0.36628651  0.03171734     0.17700
N134        N  0.32293240  0.31625345  0.02061568    -0.89000
H135        H  0.36711304  0.42344130  0.14078469     0.35100
H136        H  0.32743412  0.42848862  0.14867182     0.40200
H137        H  0.34182422  0.31752810  0.99938286     0.39800
H138        H  0.30133612  0.31887810  0.00332694     0.34700
C139        C  0.16449778  0.40106853  0.09305923    -0.27100
C140        C  0.19721598  0.39163167  0.09094704    -0.15100
C141        C  0.20475004  0.35853238  0.09096988     0.35500
C142        C  0.17980699  0.33572765  0.09148702    -0.26500
C143        C  0.14724000  0.34491940  0.09320966    -0.15700
C144        C  0.13943170  0.37800387  0.09480187     0.36600
N145        N  0.10620505  0.38798562  0.09837030    -0.90000
H146        H  0.15853979  0.42647578  0.09386710     0.17700
H147        H  0.18605917  0.31069190  0.08842513     0.17700
N148        N  0.23761577  0.34770150  0.08869726    -0.89000
H149        H  0.10459417  0.41310572  0.09932677     0.35100
H150        H  0.09789394  0.37970031  0.12698168     0.40200
H151        H  0.23958715  0.33294182  0.06231006     0.39800
H152        H  0.24266871  0.33361901  0.11493071     0.34700
C153        C  0.17955819  0.24108832  0.10525853    -0.27100
C154        C  0.14845472  0.23397166  0.08943302    -0.15100
C155        C  0.14183222  0.20197708  0.07625623     0.35500
C156        C  0.16701897  0.17913691  0.07610214    -0.26500
C157        C  0.19885617  0.18703646  0.08914813    -0.15700
C158        C  0.20476470  0.21860710  0.10450241     0.36600
N159        N  0.23628206  0.22885025  0.11859805    -0.90000
H160        H  0.18514782  0.26452914  0.11785502     0.17700
H161        H  0.16129890  0.15468893  0.06669502     0.17700
N162        N  0.10942722  0.19223440  0.06460821    -0.89000
H163        H  0.24282222  0.24917664  0.10162092     0.35100
H164        H  0.23468983  0.23588396  0.14987875     0.40200
H165        H  0.09523419  0.19400660  0.09120929     0.39800
H166        H  0.10883673  0.16809834  0.05511867     0.34700
C167        C  0.33907532  0.17834550  0.10429500    -0.27100
C168        C  0.30812158  0.18284668  0.08656394    -0.15100
C169        C  0.30104656  0.21128602  0.06447775     0.35500
C170        C  0.32416048  0.23609132  0.06394843    -0.26500
C171        C  0.35484165  0.23202283  0.08261060    -0.15700
C172        C  0.36275468  0.20264873  0.10211795     0.36600
N173        N  0.39474956  0.19764829  0.11946876    -0.90000
H174        H  0.34466952  0.15590369  0.11989666     0.17700
H175        H  0.31851861  0.25831483  0.04809548     0.17700
N176        N  0.27069915  0.21454440  0.04207139    -0.89000
H177        H  0.39674791  0.17455244  0.13203957     0.35100
H178        H  0.39806770  0.21384312  0.14425106     0.40200
H179        H  0.26991263  0.19688886  0.01869450     0.39800
H180        H  0.26939620  0.23681933  0.02711238     0.34700
C181        C  0.23801689  0.47339199  0.24993369    -0.27100
C182        C  0.25666494  0.45069935  0.27210186    -0.15100
C183        C  0.27653982  0.42916869  0.24998942     0.35500
C184        C  0.27545808  0.42903665  0.20635380    -0.26500
C185        C  0.25649537  0.45119462  0.18382600    -0.15700
C186        C  0.23757642  0.47381396  0.20597100     0.36600
N187        N  0.21670063  0.49592497  0.18399424    -0.90000
H188        H  0.22255662  0.48980664  0.26688571     0.17700
H189        H  0.28956245  0.41121131  0.19005045     0.17700
N190        N  0.29806964  0.40762445  0.27188818    -0.89000
H191        H  0.20464341  0.51098054  0.20487840     0.35100
H192        H  0.19884019  0.48237509  0.16828899     0.40200
H193        H  0.31547165  0.42176343  0.28750649     0.39800
H194        H  0.31069400  0.39300849  0.25106628     0.34700
C195        C  0.43125102  0.30358796  0.24906999    -0.27100
C196        C  0.40740982  0.28510443  0.26889413    -0.15100
C197        C  0.38479296  0.26798196  0.24340353     0.35500
C198        C  0.38612661  0.27000902  0.19988803    -0.26500
C199        C  0.40957029  0.28864568  0.18012034    -0.15700
C200        C  0.43237016  0.30568371  0.20519809     0.36600
N201        N  0.45584479  0.32620099  0.18652721    -0.90000
H202        H  0.44857644  0.31740019  0.26765586     0.17700
H203        H  0.36867420  0.25623358  0.18147198     0.17700
N204        N  0.36065095  0.24769543  0.26098490    -0.89000
H205        H  0.47893479  0.31847195  0.19611289     0.35100
H206        H  0.45247922  0.34957121  0.19801048     0.40200
H207        H  0.36321964  0.22462888  0.24817556     0.39800
H208        H  0.33785339  0.25632814  0.25155492     0.34700
C209        C  0.29312144  0.35632397  0.36908863    -0.27100
C210        C  0.30274619  0.38863009  0.37302349    -0.15100
C211        C  0.33614875  0.39606503  0.37621452     0.35500
C212        C  0.35908863  0.37104321  0.37494106    -0.26500
C213        C  0.34952389  0.33866457  0.37090764    -0.15700
C214        C  0.31608353  0.33133562  0.36869979     0.36600
N215        N  0.30516089  0.29860819  0.36772070    -0.90000
H216        H  0.26752699  0.35035222  0.36721279     0.17700
H217        H  0.38468678  0.37694708  0.37641902     0.17700
N218        N  0.34675295  0.42896826  0.37999676    -0.89000
H219        H  0.29074988  0.29522334  0.34086864     0.35100
H220        H  0.29057128  0.29493321  0.39359296     0.40200
H221        H  0.34000368  0.44085289  0.35256654     0.39800
H222        H  0.37205844  0.43023134  0.38236190     0.34700
C223        C  0.09880889  0.26184267  0.24959127    -0.27100
C224        C  0.08325156  0.28723081  0.27018409    -0.15100
C225        C  0.06725184  0.31133668  0.24673118     0.35500
C226        C  0.06758783  0.30978330  0.20317137    -0.26500
C227        C  0.08440721  0.28513541  0.18274537    -0.15700
C228        C  0.09958523  0.26055172  0.20598448     0.36600
N229        N  0.11620531  0.23476838  0.18517281    -0.90000
H230        H  0.11106693  0.24337642  0.26769499     0.17700
H231        H  0.05627509  0.32889173  0.18521235     0.17700
N232        N  0.05253103  0.33870302  0.26615621    -0.89000
H233        H  0.12642843  0.21883380  0.20682741     0.35100
H234        H  0.09889768  0.22170641  0.16782598     0.40200
H235        H  0.06997465  0.35016933  0.28515218     0.39800
H236        H  0.03366633  0.33077873  0.28477322     0.34700
C237        C  0.18547408  0.37773738  0.40220509    -0.27100
C238        C  0.19304444  0.39232253  0.36424827    -0.15100
C239        C  0.17700743  0.38182645  0.32704165     0.35500
C240        C  0.15454162  0.35653039  0.32890922    -0.26500
C241        C  0.14669989  0.34241352  0.36699475    -0.15700
C242        C  0.16246152  0.35302843  0.40391718     0.36600
N243        N  0.15587419  0.33815468  0.44304461    -0.90000
H244        H  0.19792639  0.38523878  0.43073593     0.17700
H245        H  0.14220294  0.34863897  0.30047551     0.17700
N246        N  0.18200032  0.39663234  0.28723800    -0.89000
H247        H  0.14792032  0.35599605  0.46363159     0.35100
H248        H  0.17761482  0.32875115  0.45508666     0.40200
H249        H  0.19659490  0.41701108  0.29006088     0.39800
H250        H  0.15951123  0.40510249  0.27638550     0.34700
C251        C  0.22464005  0.14076602  0.24988063    -0.27100
C252        C  0.24787083  0.12295957  0.27233143    -0.15100
C253        C  0.27070557  0.10416697  0.25079161     0.35500
C254        C  0.27041127  0.10436083  0.20690355    -0.26500
C255        C  0.24794290  0.12320607  0.18455753    -0.15700
C256        C  0.22414269  0.14073432  0.20616020     0.36600
N257        N  0.19954953  0.15835262  0.18357688    -0.90000
H258        H  0.20686148  0.15482323  0.26661038     0.17700
H259        H  0.28860777  0.09093461  0.19011426     0.17700
N260        N  0.29481840  0.08605268  0.27351838    -0.89000
H261        H  0.18395541  0.17005748  0.20409847     0.35100
H262        H  0.18543278  0.14162698  0.16679040     0.40200
H263        H  0.30966443  0.10247597  0.28975226     0.39800
H264        H  0.30976486  0.07353012  0.25300048     0.34700
C265        C  0.16148059  0.17636679  0.36821576    -0.27100
C266        C  0.19427530  0.18523278  0.36556376    -0.15100
C267        C  0.20210987  0.21807052  0.36002656     0.35500
C268        C  0.17744050  0.24119421  0.35892849    -0.26500
C269        C  0.14489483  0.23243579  0.36290371    -0.15700
C270        C  0.13665758  0.19955125  0.36612360     0.36600
N271        N  0.10319479  0.18978080  0.36627538    -0.90000
H272        H  0.15514342  0.15116022  0.37094751     0.17700
H273        H  0.18402749  0.26635894  0.35629695     0.17700
N274        N  0.23504139  0.22850886  0.35669292    -0.89000
H275        H  0.10131385  0.16475369  0.36867793     0.35100
H276        H  0.09285583  0.19597477  0.33740269     0.40200
H277        H  0.23932084  0.24631064  0.37930032     0.39800
H278        H  0.23748816  0.23937891  0.32760067     0.34700
C279        C  0.32930627  0.17953801  0.34332081    -0.27100
C280        C  0.30429949  0.18232859  0.37204668    -0.15100
C281        C  0.30529462  0.20715898  0.40253795     0.35500
C282        C  0.33005469  0.23010903  0.40115588    -0.26500
C283        C  0.35410570  0.22823415  0.37101583    -0.15700
C284        C  0.35505480  0.20146553  0.34361907     0.36600
N285        N  0.38186109  0.19535316  0.31659660    -0.90000
H286        H  0.32928788  0.15960651  0.32128586     0.17700
H287        H  0.33042850  0.24973557  0.42365568     0.17700
N288        N  0.28227842  0.20948650  0.43563430    -0.89000
H289        H  0.39217286  0.17335099  0.32535528     0.35100
H290        H  0.40013225  0.21255623  0.32054439     0.40200
H291        H  0.26366130  0.19261465  0.43225930     0.39800
H292        H  0.27140560  0.23218826  0.43442411     0.34700
C293        C  0.24788215  0.11114956  0.89114096     0.85700
C294        C  0.21868469  0.13423964  0.89458018    -0.54500
C295        C  0.21966672  0.15974916  0.86766123     0.08700
C296        C  0.24958782  0.15934199  0.83983035     0.19600
C297        C  0.24822082  0.10084911  0.84510189    -0.55200
C298        C  0.24891505  0.12622765  0.81826642     0.08800
C299        C  0.27767641  0.13294570  0.89738677    -0.54700
C300        C  0.27843876  0.15805171  0.87054379     0.09300
H301        H  0.19941970  0.13106019  0.91681882     0.13900
H302        H  0.25086552  0.17941853  0.81730646    -0.00400
H303        H  0.24729871  0.07590683  0.83471012     0.14200
H304        H  0.29636211  0.12923612  0.92121923     0.14000
C305        C  0.07342120  0.28824162  0.88885113     0.85700
C306        C  0.09663327  0.31689773  0.89471667    -0.54500
C307        C  0.12166090  0.31689752  0.86749437     0.08700
C308        C  0.12100930  0.28829458  0.83687739     0.19600
C309        C  0.06219548  0.28933615  0.84303121    -0.55200
C310        C  0.08728818  0.28938120  0.81584679     0.08800
C311        C  0.09537050  0.25842975  0.89210747    -0.54700
C312        C  0.12015662  0.25825869  0.86451588     0.09300
H313        H  0.09332857  0.33571902  0.91794378     0.13900
H314        H  0.14119446  0.28837595  0.81439946    -0.00400
H315        H  0.03686786  0.28866926  0.83313181     0.14200
H316        H  0.09212875  0.23960451  0.91497888     0.14000
C317        C  0.42545902  0.28573261  0.88843567     0.85700
C318        C  0.40447905  0.25569205  0.89449461    -0.54500
C319        C  0.37778981  0.25456903  0.86913785     0.08700
C320        C  0.37397799  0.28370167  0.84017316     0.19600
C321        C  0.43306995  0.28601811  0.84155345    -0.55200
C322        C  0.40600140  0.28484049  0.81576877     0.08800
C323        C  0.40209434  0.31408808  0.89479630    -0.54700
C324        C  0.37500750  0.31316502  0.86964956     0.09300
H325        H  0.40990423  0.23702280  0.91714706     0.13900
H326        H  0.35178877  0.28319877  0.82029784    -0.00400
H327        H  0.45765925  0.28666893  0.83002777     0.14200
H328        H  0.40631975  0.33299525  0.91784266     0.14000
C329        C  0.24910964  0.46368250  0.89080799     0.85700
C330        C  0.27701403  0.43974936  0.89927113    -0.54500
C331        C  0.27752907  0.41423787  0.87212957     0.08700
C332        C  0.24976122  0.41483235  0.83954051     0.19600
C333        C  0.25256226  0.47337320  0.84494353    -0.55200
C334        C  0.25319977  0.44769414  0.81797030     0.08800
C335        C  0.21834039  0.44291085  0.89183718    -0.54700
C336        C  0.21862784  0.41736870  0.86489871     0.09300
H337        H  0.29462122  0.44263890  0.92463827     0.13900
H338        H  0.24962276  0.39383235  0.81791363    -0.00400
H339        H  0.25475253  0.99818577  0.83487928     0.14200
H340        H  0.19845164  0.44734494  0.91287477     0.14000
C341        C  0.25138457  0.11157654  0.56577233     0.85700
C342        C  0.28234283  0.13195139  0.56269653    -0.54500
C343        C  0.28353818  0.15721619  0.58981269     0.08700
C344        C  0.25394283  0.15963558  0.61812502     0.19600
C345        C  0.24993568  0.10126581  0.61153514    -0.55200
C346        C  0.25097958  0.12656960  0.63888956     0.08800
C347        C  0.22361459  0.13607209  0.56001297    -0.54700
C348        C  0.22456358  0.16145821  0.58778715     0.09300
H349        H  0.30078696  0.12806001  0.53942893     0.13900
H350        H  0.25610808  0.17896998  0.64180116    -0.00400
H351        H  0.24752029  0.07640879  0.62134711     0.14200
H352        H  0.20513846  0.13346316  0.53567328     0.14000
C353        C  0.07529561  0.28967179  0.56392518     0.85700
C354        C  0.09898289  0.26143644  0.55824703    -0.54500
C355        C  0.12355774  0.26024145  0.58749246     0.08700
C356        C  0.12277911  0.28891773  0.61835412     0.19600
C357        C  0.06401466  0.28755536  0.60905136    -0.55200
C358        C  0.08898381  0.28712281  0.63745505     0.08800
C359        C  0.09690335  0.31976751  0.56268559    -0.54700
C360        C  0.12191352  0.31944639  0.59118624     0.09300
H361        H  0.09657485  0.24441476  0.53258052     0.13900
H362        H  0.14241382  0.28923661  0.64246171    -0.00400
H363        H  0.03869513  0.28632157  0.61774797     0.14200
H364        H  0.09347370  0.33904717  0.54032850     0.14000
C365        C  0.42697838  0.28781794  0.56144547     0.85700
C366        C  0.40436569  0.31657525  0.55330171    -0.54500
C367        C  0.37799152  0.31716526  0.57797158     0.08700
C368        C  0.37616129  0.28903541  0.60844218     0.19600
C369        C  0.43535792  0.28951389  0.60852751    -0.55200
C370        C  0.40855542  0.29008687  0.63346474     0.08800
C371        C  0.40502626  0.25796663  0.55642840    -0.54700
C372        C  0.37853203  0.25864921  0.58117465     0.09300
H373        H  0.40883974  0.33509134  0.53034138     0.13900
H374        H  0.35409760  0.28987468  0.62777155    -0.00400
H375        H  0.46009108  0.28883470  0.62069734     0.14200
H376        H  0.40991587  0.23801774  0.53537202     0.14000
C377        C  0.25103588  0.46469056  0.56465538     0.85700
C378        C  0.22115680  0.44233938  0.56213014    -0.54500
C379        C  0.22313523  0.41648841  0.58827090     0.08700
C380        C  0.25469898  0.41573253  0.61461192     0.19600
C381        C  0.25420610  0.47431805  0.61089184    -0.55200
C382        C  0.25550570  0.44856733  0.63739993     0.08800
C383        C  0.28002273  0.44252852  0.55651375    -0.54700
C384        C  0.28215080  0.41723039  0.58285376     0.09300
H385        H  0.20056688  0.44626910  0.54115533     0.13900
H386        H  0.25630120  0.39477724  0.63577807    -0.00400
H387        H  0.25521361  0.99920347  0.62143023     0.14200
H388        H  0.29739866  0.44635500  0.53196061     0.14000
O389        O  0.03413908  0.31490942  0.93125889    -0.73700
O390        O  0.46700788  0.31430813  0.51984072    -0.74700
O391        O  0.03613587  0.31573115  0.51885103    -0.63300
O392        O  0.46535637  0.31372398  0.93129347    -0.71700
O393        O  0.46673963  0.26032624  0.93117795    -0.71300
O394        O  0.03591199  0.26229276  0.52047992    -0.62500
O395        O  0.46692320  0.26089115  0.51943412    -0.78800
O396        O  0.03559666  0.26148322  0.93287962    -0.73800
Cu397      Cu  0.50061583  0.31653076  0.97533794     1.04600
Cu398      Cu  0.50134771  0.25938969  0.97599741     1.04300
C399        C  0.04612425  0.28819826  0.91900508     0.92500
C400        C  0.45562333  0.28760724  0.53281618     0.91600
C401        C  0.04765388  0.28928406  0.53280464     0.83800
C402        C  0.45451092  0.28668168  0.91778270     0.90100
O403        O  0.27587517  0.00305126  0.93470142    -0.73700
O404        O  0.27660972  0.07301083  0.52066465    -0.74700
O405        O  0.27653948  0.00484618  0.52276985    -0.63300
O406        O  0.27499791  0.07132055  0.93312462    -0.71700
O407        O  0.22122103  0.07264534  0.93500682    -0.71300
O408        O  0.22271669  0.00308298  0.52121120    -0.62500
O409        O  0.22286813  0.07191163  0.52329748    -0.75000
O410        O  0.22203577  0.00347155  0.93336606    -0.73800
Cu411      Cu  0.27782916  0.03805780  0.97782804     1.04600
Cu412      Cu  0.22028099  0.03778491  0.97817693     1.04300
C413        C  0.24892585  0.49173398  0.92090140     0.92500
C414        C  0.25013382  0.08390032  0.53520277     0.91600
C415        C  0.24993304  0.49264403  0.53513103     0.83800
C416        C  0.24791407  0.08338406  0.92102028     0.90100
C417        C  0.35953481  0.37044647  0.60266663    -0.27100
C418        C  0.35424838  0.34355765  0.57683493    -0.15100
C419        C  0.32697613  0.34242161  0.54980222     0.35500
C420        C  0.30379522  0.36709691  0.55189672    -0.26500
C421        C  0.30802546  0.39296541  0.57973541    -0.15700
C422        C  0.33706617  0.39583884  0.60331733     0.36600
N423        N  0.34452190  0.42517156  0.62557988    -0.90000
H424        H  0.38147622  0.37178674  0.62177718     0.17700
H425        H  0.28242959  0.36628906  0.53171397     0.17700
N426        N  0.32293674  0.31625746  0.52061088    -0.89000
H427        H  0.36711083  0.42344076  0.64078996     0.35100
H428        H  0.32743175  0.42848844  0.64867434     0.40200
H429        H  0.34182962  0.31753399  0.49937979     0.39800
H430        H  0.30134126  0.31888259  0.50332058     0.34700
C431        C  0.16449761  0.40106773  0.59305685    -0.27100
C432        C  0.19721575  0.39163094  0.59094410    -0.15100
C433        C  0.20474992  0.35853171  0.59096544     0.35500
C434        C  0.17980690  0.33572686  0.59148215    -0.26500
C435        C  0.14723991  0.34491860  0.59320625    -0.15700
C436        C  0.13943161  0.37800304  0.59479932     0.36600
N437        N  0.10620501  0.38798476  0.59836859    -0.90000
H438        H  0.15853962  0.42647496  0.59386557     0.17700
H439        H  0.18605905  0.31069112  0.58841934     0.17700
N440        N  0.23761572  0.34770120  0.58869199    -0.89000
H441        H  0.10459409  0.41310482  0.59932556     0.35100
H442        H  0.09789424  0.37969909  0.62698000     0.40200
H443        H  0.23958707  0.33294240  0.56230394     0.39800
H444        H  0.24266894  0.33361798  0.61492465     0.34700
C445        C  0.17955815  0.24108851  0.60525667    -0.27100
C446        C  0.14845477  0.23397162  0.58943093    -0.15100
C447        C  0.14183268  0.20197715  0.57625339     0.35500
C448        C  0.16701955  0.17913724  0.57609932    -0.26500
C449        C  0.19885653  0.18703687  0.58914589    -0.15700
C450        C  0.20476479  0.21860746  0.60450065     0.36600
N451        N  0.23628194  0.22885071  0.61859703    -0.90000
H452        H  0.18514760  0.26452934  0.61785335     0.17700
H453        H  0.16129963  0.15468931  0.56669186     0.17700
N454        N  0.10942796  0.19223424  0.56460451    -0.89000
H455        H  0.24282227  0.24917718  0.60162019     0.35100
H456        H  0.23468926  0.23588426  0.64987776     0.40200
H457        H  0.09523474  0.19400538  0.59120551     0.39800
H458        H  0.10883794  0.16809847  0.55511366     0.34700
C459        C  0.33907508  0.17834591  0.60429085    -0.27100
C460        C  0.30812122  0.18284683  0.58656027    -0.15100
C461        C  0.30104546  0.21128654  0.56447511     0.35500
C462        C  0.32415872  0.23609260  0.56394699    -0.26500
C463        C  0.35483999  0.23202430  0.58260910    -0.15700
C464        C  0.36275377  0.20264977  0.60211484     0.36600
N465        N  0.39474884  0.19764953  0.61946510    -0.90000
H466        H  0.34466980  0.15590385  0.61989164     0.17700
H467        H  0.31851631  0.25831651  0.54809500     0.17700
N468        N  0.27069803  0.21454449  0.54206867    -0.89000
H469        H  0.39674790  0.17455318  0.63203425     0.35100
H470        H  0.39806660  0.21384344  0.64424849     0.40200
H471        H  0.26991200  0.19688925  0.51869139     0.39800
H472        H  0.26939464  0.23681959  0.52711010     0.34700
C473        C  0.23801634  0.47339278  0.74993398    -0.27100
C474        C  0.25666459  0.45070025  0.77210207    -0.15100
C475        C  0.27653868  0.42916904  0.74998940     0.35500
C476        C  0.27545578  0.42903612  0.70635381    -0.26500
C477        C  0.25649320  0.45119419  0.68382600    -0.15700
C478        C  0.23757506  0.47381418  0.70597120     0.36600
N479        N  0.21669923  0.49592530  0.68399469    -0.90000
H480        H  0.22255661  0.48980782  0.76688618     0.17700
H481        H  0.28955950  0.41121024  0.69005052     0.17700
N482        N  0.29806915  0.40762535  0.77188799    -0.89000
H483        H  0.20464257  0.51098121  0.70487891     0.35100
H484        H  0.19883826  0.48237550  0.66829025     0.40200
H485        H  0.31547169  0.42176476  0.78750453     0.39800
H486        H  0.31069269  0.39300873  0.75106595     0.34700
C487        C  0.43125178  0.30358642  0.74907011    -0.27100
C488        C  0.40741035  0.28510330  0.76889445    -0.15100
C489        C  0.38479343  0.26798085  0.74340388     0.35500
C490        C  0.38612679  0.27000807  0.69988826    -0.26500
C491        C  0.40957064  0.28864442  0.68012039    -0.15700
C492        C  0.43237100  0.30568193  0.70519814     0.36600
N493        N  0.45584631  0.32619840  0.68652722    -0.90000
H494        H  0.44857741  0.31739850  0.76765585     0.17700
H495        H  0.36867405  0.25623300  0.68147223     0.17700
N496        N  0.36065177  0.24769401  0.76098542    -0.89000
H497        H  0.47893604  0.31846869  0.69611310     0.35100
H498        H  0.45248149  0.34956878  0.69801031     0.40200
H499        H  0.36322085  0.22462746  0.74817618     0.39800
H500        H  0.33785406  0.25632631  0.75155545     0.34700
C501        C  0.29312085  0.35632413  0.86908803    -0.27100
C502        C  0.30274539  0.38863033  0.87302292    -0.15100
C503        C  0.33614795  0.39606546  0.87621284     0.35500
C504        C  0.35908803  0.37104379  0.87493958    -0.26500
C505        C  0.34952358  0.33866505  0.87090666    -0.15700
C506        C  0.31608319  0.33133591  0.86869885     0.36600
N507        N  0.30516077  0.29860842  0.86771925    -0.90000
H508        H  0.26752641  0.35035224  0.86721236     0.17700
H509        H  0.38468613  0.37694788  0.87641705     0.17700
N510        N  0.34675195  0.42896885  0.87999325    -0.89000
H511        H  0.29074995  0.29522374  0.84086700     0.35100
H512        H  0.29057101  0.29493315  0.89359129     0.40200
H513        H  0.34000203  0.44085266  0.85256272     0.39800
H514        H  0.37205749  0.43023218  0.88235737     0.34700
C515        C  0.09881100  0.26184419  0.74959107    -0.27100
C516        C  0.08325180  0.28723150  0.77018339    -0.15100
C517        C  0.06724964  0.31133544  0.74672976     0.35500
C518        C  0.06758578  0.30978149  0.70317000    -0.26500
C519        C  0.08440745  0.28513493  0.68274452    -0.15700
C520        C  0.09958708  0.26055250  0.70598422     0.36600
N521        N  0.11620810  0.23476952  0.68517306    -0.90000
H522        H  0.11107043  0.24337904  0.76769517     0.17700
H523        H  0.05627125  0.32888868  0.68521056     0.17700
N524        N  0.05252625  0.33870075  0.76615388    -0.89000
H525        H  0.12643201  0.21883568  0.70682800     0.35100
H526        H  0.09890091  0.22170660  0.66782674     0.40200
H527        H  0.06996869  0.35016887  0.78514975     0.39800
H528        H  0.03366196  0.33077516  0.78477067     0.34700
C529        C  0.18547219  0.37774080  0.90220546    -0.27100
C530        C  0.19304284  0.39232565  0.86424857    -0.15100
C531        C  0.17700552  0.38183002  0.82704203     0.35500
C532        C  0.15453991  0.35653380  0.82890943    -0.26500
C533        C  0.14669863  0.34241647  0.86699484    -0.15700
C534        C  0.16245977  0.35303178  0.90391747     0.36600
N535        N  0.15587220  0.33815832  0.94304502    -0.90000
H536        H  0.19792437  0.38524230  0.93073636     0.17700
H537        H  0.14220119  0.34864248  0.80047570     0.17700
N538        N  0.18199808  0.39663642  0.78723863    -0.89000
H539        H  0.14791784  0.35599978  0.96363155     0.35100
H540        H  0.17761282  0.32875518  0.95508764     0.40200
H541        H  0.19659287  0.41701501  0.79006175     0.39800
H542        H  0.15950893  0.40510687  0.77638674     0.34700
C543        C  0.22464212  0.14076994  0.74988035    -0.27100
C544        C  0.24787155  0.12296168  0.77233122    -0.15100
C545        C  0.27070472  0.10416739  0.75079104     0.35500
C546        C  0.27041014  0.10436112  0.70690287    -0.26500
C547        C  0.24794310  0.12320792  0.68455680    -0.15700
C548        C  0.22414453  0.14073822  0.70615982     0.36600
N549        N  0.19955266  0.15835859  0.68357688    -0.90000
H550        H  0.20686463  0.15482849  0.76661011     0.17700
H551        H  0.28860548  0.09093342  0.69011348     0.17700
N552        N  0.29481643  0.08605147  0.77351753    -0.89000
H553        H  0.18395972  0.17006477  0.70409858     0.35100
H554        H  0.18543438  0.14163410  0.66679046     0.40200
H555        H  0.30966375  0.10247380  0.78975115     0.39800
H556        H  0.30976184  0.07352780  0.75299947     0.34700
C557        C  0.16147871  0.17636805  0.86821201    -0.27100
C558        C  0.19427369  0.18523363  0.86556228    -0.15100
C559        C  0.20210901  0.21807145  0.86002699     0.35500
C560        C  0.17744016  0.24119561  0.85892938    -0.26500
C561        C  0.14489430  0.23243761  0.86290265    -0.15700
C562        C  0.13665621  0.19955308  0.86611976     0.36600
N563        N  0.10319313  0.18978335  0.86626871    -0.90000
H564        H  0.15514100  0.15116149  0.87094212     0.17700
H565        H  0.18402768  0.26636034  0.85629961     0.17700
N566        N  0.23504076  0.22850942  0.85669480    -0.89000
H567        H  0.10131155  0.16475615  0.86866903     0.35100
H568        H  0.09285537  0.19597893  0.83739594     0.40200
H569        H  0.23932000  0.24631073  0.87930278     0.39800
H570        H  0.23748825  0.23938013  0.82760302     0.34700
C571        C  0.32930435  0.17953978  0.84332322    -0.27100
C572        C  0.30429763  0.18233104  0.87204903    -0.15100
C573        C  0.30529341  0.20716146  0.90254029     0.35500
C574        C  0.33005424  0.23011078  0.90115828    -0.26500
C575        C  0.35410526  0.22823513  0.87101828    -0.15700
C576        C  0.35505362  0.20146641  0.84362169     0.36600
N577        N  0.38185995  0.19535285  0.81659974    -0.90000
H578        H  0.32928547  0.15960827  0.82128829     0.17700
H579        H  0.33042853  0.24973743  0.92365791     0.17700
N580        N  0.28227712  0.20948978  0.93563643    -0.89000
H581        H  0.39217050  0.17335015  0.82535833     0.35100
H582        H  0.40013192  0.21255508  0.82054818     0.40200
H583        H  0.26365915  0.19261885  0.93226066     0.39800
H584        H  0.27140553  0.23219212  0.93442671     0.34700
C585        C  0.24788329  0.61114795  0.39114066     0.85700
C586        C  0.21868689  0.63423902  0.39458164    -0.54500
C587        C  0.21966868  0.65974833  0.36766245     0.08700
C588        C  0.24958885  0.65934024  0.33982993     0.19600
C589        C  0.24822009  0.60084734  0.34510171    -0.55200
C590        C  0.24891450  0.62622581  0.31826631     0.08800
C591        C  0.27767858  0.63294297  0.39738474    -0.54700
C592        C  0.27844077  0.65804899  0.37054176     0.09300
H593        H  0.19942254  0.63106014  0.41682134     0.13900
H594        H  0.25086636  0.67941675  0.31730593    -0.00400
H595        H  0.24729723  0.57590508  0.33470990     0.14200
H596        H  0.29636474  0.62923304  0.42121650     0.14000
C597        C  0.07342163  0.78823955  0.38885158     0.85700
C598        C  0.09663414  0.81689537  0.39471730    -0.54500
C599        C  0.12166170  0.81689497  0.36749479     0.08700
C600        C  0.12100953  0.78829224  0.33687759     0.19600
C601        C  0.06219574  0.78933456  0.34303182    -0.55200
C602        C  0.08728832  0.78937950  0.31584738     0.08800
C603        C  0.09537065  0.75842746  0.39210760    -0.54700
C604        C  0.12015680  0.75825630  0.36451595     0.09300
H605        H  0.09332979  0.83571657  0.41794461     0.13900
H606        H  0.14119450  0.78837349  0.31439936    -0.00400
H607        H  0.03686808  0.78866847  0.33313242     0.14200
H608        H  0.09212894  0.73960248  0.41497936     0.14000
C609        C  0.42545875  0.78573171  0.38843543     0.85700
C610        C  0.40447910  0.75569083  0.39449336    -0.54500
C611        C  0.37778979  0.75456820  0.36913671     0.08700
C612        C  0.37397762  0.78370148  0.34017319     0.19600
C613        C  0.43306954  0.78601842  0.34155322    -0.55200
C614        C  0.40600088  0.78484110  0.31576873     0.08800
C615        C  0.40209392  0.81408680  0.39479736    -0.54700
C616        C  0.37500717  0.81316417  0.36965057     0.09300
H617        H  0.40990446  0.73702112  0.41714511     0.13900
H618        H  0.35178831  0.78319895  0.32029802    -0.00400
H619        H  0.45765878  0.78666971  0.33002741     0.14200
H620        H  0.40631929  0.83299352  0.41784435     0.14000
C621        C  0.24910934  0.96368138  0.39080762     0.85700
C622        C  0.27701450  0.93974912  0.39927054    -0.54500
C623        C  0.27752999  0.91423754  0.37212922     0.08700
C624        C  0.24976196  0.91483109  0.33954041     0.19600
C625        C  0.25256125  0.97337201  0.34494308    -0.55200
C626        C  0.25319938  0.94769292  0.31796997     0.08800
C627        C  0.21834069  0.94290871  0.39183739    -0.54700
C628        C  0.21862871  0.91736644  0.36489896     0.09300
H629        H  0.29462156  0.94263906  0.42463774     0.13900
H630        H  0.24962398  0.89383102  0.31791365    -0.00400
H631        H  0.25475111  0.49818459  0.33487873     0.14200
H632        H  0.19845198  0.94734231  0.41287520     0.14000
C633        C  0.25138504  0.61157666  0.06577336     0.85700
C634        C  0.28234316  0.63195180  0.06269819    -0.54500
C635        C  0.28353832  0.65721611  0.08981514     0.08700
C636        C  0.25394269  0.65963495  0.11812718     0.19600
C637        C  0.24993629  0.60126518  0.11153577    -0.55200
C638        C  0.25097980  0.62656856  0.13889070     0.08800
C639        C  0.22361476  0.63607198  0.06001451    -0.54700
C640        C  0.22456345  0.66145776  0.08778915     0.09300
H641        H  0.30078747  0.62806078  0.03943072     0.13900
H642        H  0.25610745  0.67896905  0.14180385    -0.00400
H643        H  0.24752134  0.57640796  0.12134709     0.14200
H644        H  0.20513862  0.63346315  0.03567480     0.14000
C645        C  0.07529613  0.78967242  0.06392604     0.85700
C646        C  0.09898348  0.76143706  0.05824802    -0.54500
C647        C  0.12355808  0.76024189  0.08749376     0.08700
C648        C  0.12277920  0.78891806  0.11835563     0.19600
C649        C  0.06401478  0.78755580  0.10905207    -0.55200
C650        C  0.08898377  0.78712318  0.13745603     0.08800
C651        C  0.09690386  0.81976819  0.06268717    -0.54700
C652        C  0.12191371  0.81944703  0.09118831     0.09300
H653        H  0.09657557  0.74441530  0.03258159     0.13900
H654        H  0.14241373  0.78923664  0.14246347    -0.00400
H655        H  0.03869518  0.78632211  0.11774842     0.14200
H656        H  0.09347430  0.83904805  0.04033039     0.14000
C657        C  0.42697897  0.78781785  0.06144635     0.85700
C658        C  0.40436519  0.81657411  0.05330102    -0.54500
C659        C  0.37799083  0.81716385  0.07797060     0.08700
C660        C  0.37616150  0.78903474  0.10844236     0.19600
C661        C  0.43535812  0.78951546  0.10852840    -0.55200
C662        C  0.40855537  0.79008802  0.13346521     0.08800
C663        C  0.40502807  0.75796548  0.05643057    -0.54700
C664        C  0.37853364  0.75864782  0.08117651     0.09300
H665        H  0.40883890  0.83509000  0.03034031     0.13900
H666        H  0.35409763  0.78987379  0.12777138    -0.00400
H667        H  0.46009120  0.78883740  0.12069860     0.14200
H668        H  0.40991846  0.73801627  0.03537503     0.14000
C669        C  0.25103653  0.96469085  0.06465572     0.85700
C670        C  0.22115681  0.94234026  0.06213200    -0.54500
C671        C  0.22313535  0.91648929  0.08827287     0.08700
C672        C  0.25469977  0.91573292  0.11461251     0.19600
C673        C  0.25420819  0.97431841  0.11089198    -0.55200
C674        C  0.25550779  0.94856776  0.13740010     0.08800
C675        C  0.28002266  0.94252806  0.05651303    -0.54700
C676        C  0.28215080  0.91722997  0.08285322     0.09300
H677        H  0.20056650  0.94627029  0.04115796     0.13900
H678        H  0.25630216  0.89477791  0.13577907    -0.00400
H679        H  0.25521560  0.49920347  0.12143041     0.14200
H680        H  0.29739816  0.94635420  0.03195931     0.14000
O681        O  0.03413937  0.81490759  0.43125863    -0.73700
O682        O  0.46700850  0.81430873  0.01984227    -0.74700
O683        O  0.03613657  0.81573197  0.01885159    -0.63300
O684        O  0.46535635  0.81372298  0.43129242    -0.71700
O685        O  0.46673906  0.76032522  0.43117785    -0.71300
O686        O  0.03591291  0.76229357  0.02047987    -0.62500
O687        O  0.46692399  0.76089175  0.01943453    -0.78800
O688        O  0.03559663  0.76148139  0.43287988    -0.73800
Cu689      Cu  0.50061543  0.81652991  0.47533705     1.04600
Cu690      Cu  0.50134701  0.75938884  0.47599730     1.04300
C691        C  0.04612456  0.78819632  0.41900535     0.92500
C692        C  0.45562407  0.78760762  0.03281723     0.91600
C693        C  0.04765465  0.78928483  0.03280502     0.83800
C694        C  0.45451064  0.78668065  0.41778219     0.90100
O695        O  0.27587451  0.50305040  0.43470058    -0.73700
O696        O  0.27661026  0.57301172  0.02066479    -0.74700
O697        O  0.27654016  0.50484679  0.02277062    -0.63300
O698        O  0.27499841  0.57131948  0.43312515    -0.71700
O699        O  0.22122141  0.57264375  0.43500533    -0.71300
O700        O  0.22271742  0.50308302  0.02121167    -0.62500
O701        O  0.22286874  0.57191170  0.02329890    -0.75000
O702        O  0.22203510  0.50347011  0.43336585    -0.73800
Cu703      Cu  0.27782888  0.53805663  0.47782772     1.04600
Cu704      Cu  0.22028066  0.53778406  0.47817615     1.04300
C705        C  0.24892540  0.99173303  0.42090084     0.92500
C706        C  0.25013440  0.58390077  0.03520352     0.91600
C707        C  0.24993366  0.99264452  0.03513143     0.83800
C708        C  0.24791475  0.58338266  0.42101988     0.90100
C709        C  0.35953536  0.87044614  0.10266355    -0.27100
C710        C  0.35424757  0.84355623  0.07683416    -0.15100
C711        C  0.32697375  0.84241905  0.04980414     0.35500
C712        C  0.30379335  0.86709485  0.05189830    -0.26500
C713        C  0.30802508  0.89296456  0.07973473    -0.15700
C714        C  0.33706670  0.89583850  0.10331476     0.36600
N715        N  0.34452292  0.92517154  0.12557631    -0.90000
H716        H  0.38147770  0.87178711  0.12177226     0.17700
H717        H  0.28242690  0.86628640  0.03171705     0.17700
N718        N  0.32293228  0.81625330  0.02061570    -0.89000
H719        H  0.36711262  0.92344118  0.14078487     0.35100
H720        H  0.32743365  0.92848853  0.14867170     0.40200
H721        H  0.34182419  0.81752788  0.99938297     0.39800
H722        H  0.30133605  0.81887793  0.00332687     0.34700
C723        C  0.16449746  0.90106872  0.09305865    -0.27100
C724        C  0.19721570  0.89163192  0.09094703    -0.15100
C725        C  0.20474981  0.85853265  0.09097019     0.35500
C726        C  0.17980681  0.83572787  0.09148730    -0.26500
C727        C  0.14723979  0.84491954  0.09320949    -0.15700
C728        C  0.13943140  0.87800402  0.09480116     0.36600
N729        N  0.10620470  0.88798580  0.09836888    -0.90000
H730        H  0.15853940  0.92647595  0.09386617     0.17700
H731        H  0.18605908  0.81069212  0.08842575     0.17700
N732        N  0.23761554  0.84770180  0.08869786    -0.89000
H733        H  0.10459375  0.91310588  0.09932509     0.35100
H734        H  0.09789327  0.87970063  0.12698022     0.40200
H735        H  0.23958699  0.83294205  0.06231073     0.39800
H736        H  0.24266835  0.83361942  0.11493142     0.34700
C737        C  0.17955832  0.74108834  0.10525822    -0.27100
C738        C  0.14845488  0.73397174  0.08943253    -0.15100
C739        C  0.14183244  0.70197720  0.07625558     0.35500
C740        C  0.16701918  0.67913702  0.07610154    -0.26500
C741        C  0.19885630  0.68703644  0.08914792    -0.15700
C742        C  0.20476479  0.71860706  0.10450234     0.36600
N743        N  0.23628209  0.72885014  0.11859834    -0.90000
H744        H  0.18514793  0.76452912  0.11785483     0.17700
H745        H  0.16129911  0.65468907  0.06669425     0.17700
N746        N  0.10942747  0.69223453  0.06460748    -0.89000
H747        H  0.24282240  0.74917654  0.10162133     0.35100
H748        H  0.23468968  0.73588382  0.14987904     0.40200
H749        H  0.09523445  0.69400668  0.09120856     0.39800
H750        H  0.10883699  0.66809848  0.05511787     0.34700
C751        C  0.33907538  0.67834537  0.10429498    -0.27100
C752        C  0.30812168  0.68284658  0.08656383    -0.15100
C753        C  0.30104661  0.71128606  0.06447798     0.35500
C754        C  0.32416049  0.73609141  0.06394898    -0.26500
C755        C  0.35484165  0.73202287  0.08261116    -0.15700
C756        C  0.36275470  0.70264868  0.10211826     0.36600
N757        N  0.39474955  0.69764821  0.11946910    -0.90000
H758        H  0.34466955  0.65590350  0.11989651     0.17700
H759        H  0.31851858  0.75831500  0.04809624     0.17700
N760        N  0.27069915  0.71454454  0.04207175    -0.89000
H761        H  0.39674793  0.67455225  0.13203959     0.35100
H762        H  0.39806761  0.71384288  0.14425160     0.40200
H763        H  0.26991259  0.69688920  0.01869465     0.39800
H764        H  0.26939613  0.73681961  0.02711303     0.34700
C765        C  0.23801673  0.97339191  0.24993366    -0.27100
C766        C  0.25666468  0.95069919  0.27210186    -0.15100
C767        C  0.27653956  0.92916854  0.24998942     0.35500
C768        C  0.27545789  0.92903654  0.20635382    -0.26500
C769        C  0.25649533  0.95119462  0.18382600    -0.15700
C770        C  0.23757641  0.97381399  0.20597099     0.36600
N771        N  0.21670073  0.99592509  0.18399421    -0.90000
H772        H  0.22255646  0.98980657  0.26688566     0.17700
H773        H  0.28956224  0.91121118  0.19005048     0.17700
N774        N  0.29806939  0.90762435  0.27188821    -0.89000
H775        H  0.20464324  0.01098043  0.20487839     0.35100
H776        H  0.19884047  0.98237526  0.16828854     0.40200
H777        H  0.31547129  0.92176335  0.28750663     0.39800
H778        H  0.31069377  0.89300840  0.25106627     0.34700
C779        C  0.43125068  0.80358835  0.24907050    -0.27100
C780        C  0.40740961  0.78510459  0.26889456    -0.15100
C781        C  0.38479285  0.76798208  0.24340388     0.35500
C782        C  0.38612654  0.77000922  0.19988840    -0.26500
C783        C  0.40957013  0.78864604  0.18012077    -0.15700
C784        C  0.43236983  0.80568422  0.20519860     0.36600
N785        N  0.45584438  0.82620162  0.18652779    -0.90000
H786        H  0.44857602  0.81740062  0.26765645     0.17700
H787        H  0.36867424  0.75623368  0.18147231     0.17700
N788        N  0.36065091  0.74769537  0.26098512    -0.89000
H789        H  0.47893438  0.81847267  0.19611356     0.35100
H790        H  0.45247870  0.84957182  0.19801104     0.40200
H791        H  0.36321974  0.72462888  0.24817572     0.39800
H792        H  0.33785332  0.75632797  0.25155505     0.34700
C793        C  0.29312127  0.85632393  0.36908831    -0.27100
C794        C  0.30274615  0.88863000  0.37302348    -0.15100
C795        C  0.33614872  0.89606482  0.37621479     0.35500
C796        C  0.35908851  0.87104295  0.37494143    -0.26500
C797        C  0.34952367  0.83866438  0.37090784    -0.15700
C798        C  0.31608330  0.83133552  0.36869956     0.36600
N799        N  0.30516059  0.79860811  0.36772015    -0.90000
H800        H  0.26752679  0.85035230  0.36721221     0.17700
H801        H  0.38468668  0.87694674  0.37641957     0.17700
N802        N  0.34675306  0.92896799  0.37999711    -0.89000
H803        H  0.29074968  0.79522343  0.34086802     0.35100
H804        H  0.29057086  0.79493307  0.39359230     0.40200
H805        H  0.34000401  0.94085259  0.35256677     0.39800
H806        H  0.37205853  0.93023094  0.38236252     0.34700
C807        C  0.09880891  0.76184252  0.24959131    -0.27100
C808        C  0.08325169  0.78723074  0.27018412    -0.15100
C809        C  0.06725195  0.81133660  0.24673119     0.35500
C810        C  0.06758793  0.80978320  0.20317138    -0.26500
C811        C  0.08440731  0.78513532  0.18274538    -0.15700
C812        C  0.09958529  0.76055160  0.20598450     0.36600
N813        N  0.11620537  0.73476827  0.18517283    -0.90000
H814        H  0.11106688  0.74337622  0.26769505     0.17700
H815        H  0.05627518  0.82889164  0.18521234     0.17700
N816        N  0.05253115  0.83870296  0.26615621    -0.89000
H817        H  0.12642842  0.71883366  0.20682740     0.35100
H818        H  0.09889774  0.72170633  0.16782591     0.40200
H819        H  0.06997480  0.85016928  0.28515218     0.39800
H820        H  0.03366650  0.83077869  0.28477327     0.34700
C821        C  0.18547394  0.87773744  0.40220558    -0.27100
C822        C  0.19304437  0.89232255  0.36424874    -0.15100
C823        C  0.17700728  0.88182655  0.32704215     0.35500
C824        C  0.15454150  0.85653047  0.32890967    -0.26500
C825        C  0.14669994  0.84241345  0.36699514    -0.15700
C826        C  0.16246148  0.85302840  0.40391762     0.36600
N827        N  0.15587426  0.83815455  0.44304504    -0.90000
H828        H  0.19792618  0.88523885  0.43073646     0.17700
H829        H  0.14220276  0.84863913  0.30047595     0.17700
N830        N  0.18200002  0.89663252  0.28723852    -0.89000
H831        H  0.14792025  0.85599581  0.46363210     0.35100
H832        H  0.17761494  0.82875113  0.45508705     0.40200
H833        H  0.19659467  0.91701126  0.29006139     0.39800
H834        H  0.15951094  0.90510271  0.27638621     0.34700
C835        C  0.22464032  0.64076605  0.24988066    -0.27100
C836        C  0.24787106  0.62295954  0.27233147    -0.15100
C837        C  0.27070574  0.60416688  0.25079165     0.35500
C838        C  0.27041147  0.60436080  0.20690358    -0.26500
C839        C  0.24794312  0.62320605  0.18455754    -0.15700
C840        C  0.22414296  0.64073433  0.20616022     0.36600
N841        N  0.19954984  0.65835270  0.18357690    -0.90000
H842        H  0.20686177  0.65482329  0.26661039     0.17700
H843        H  0.28860793  0.59093455  0.19011427     0.17700
N844        N  0.29481846  0.58605241  0.27351840    -0.89000
H845        H  0.18395574  0.67005755  0.20409847     0.35100
H846        H  0.18543310  0.64162710  0.16679029     0.40200
H847        H  0.30966453  0.60247558  0.28975245     0.39800
H848        H  0.30976491  0.57352985  0.25300051     0.34700
C849        C  0.16148071  0.67636658  0.36821532    -0.27100
C850        C  0.19427544  0.68523258  0.36556380    -0.15100
C851        C  0.20211013  0.71807034  0.36002698     0.35500
C852        C  0.17744078  0.74119405  0.35892874    -0.26500
C853        C  0.14489506  0.73243561  0.36290337    -0.15700
C854        C  0.13665774  0.69955105  0.36612286     0.36600
N855        N  0.10319493  0.68978059  0.36627413    -0.90000
H856        H  0.15514350  0.65116001  0.37094694     0.17700
H857        H  0.18402783  0.76635879  0.35629761     0.17700
N858        N  0.23504172  0.72850870  0.35669410    -0.89000
H859        H  0.10131398  0.66475350  0.36867636     0.35100
H860        H  0.09285613  0.69597484  0.33740141     0.40200
H861        H  0.23932089  0.74631038  0.37930169     0.39800
H862        H  0.23748892  0.73937888  0.32760199     0.34700
C863        C  0.32930601  0.67953804  0.34332105    -0.27100
C864        C  0.30429940  0.68232847  0.37204714    -0.15100
C865        C  0.30529468  0.70715868  0.40253867     0.35500
C866        C  0.33005468  0.73010882  0.40115651    -0.26500
C867        C  0.35410557  0.72823402  0.37101631    -0.15700
C868        C  0.35505458  0.70146548  0.34361941     0.36600
N869        N  0.38186081  0.69535309  0.31659687    -0.90000
H870        H  0.32928751  0.65960668  0.32128589     0.17700
H871        H  0.33042853  0.74973533  0.42365635     0.17700
N872        N  0.28227868  0.70948595  0.43563527    -0.89000
H873        H  0.39217239  0.67335078  0.32535530     0.35100
H874        H  0.40013210  0.71255601  0.32054484     0.40200
H875        H  0.26366160  0.69261405  0.43226032     0.39800
H876        H  0.27140576  0.73218768  0.43442533     0.34700
C877        C  0.24788223  0.61114928  0.89114099     0.85700
C878        C  0.21868484  0.63423942  0.89458033    -0.54500
C879        C  0.21966691  0.65974900  0.86766148     0.08700
C880        C  0.24958794  0.65934181  0.83983055     0.19600
C881        C  0.24822082  0.60084891  0.84510189    -0.55200
C882        C  0.24891507  0.62622752  0.81826649     0.08800
C883        C  0.27767656  0.63294532  0.89738680    -0.54700
C884        C  0.27843890  0.65805139  0.87054394     0.09300
H885        H  0.19941987  0.63106000  0.91681901     0.13900
H886        H  0.25086565  0.67941841  0.81730675    -0.00400
H887        H  0.24729868  0.57590665  0.83471004     0.14200
H888        H  0.29636231  0.62923563  0.92121917     0.14000
C889        C  0.07342141  0.78824136  0.88885132     0.85700
C890        C  0.09663334  0.81689756  0.89471692    -0.54500
C891        C  0.12166100  0.81689749  0.86749468     0.08700
C892        C  0.12100958  0.78829454  0.83687773     0.19600
C893        C  0.06219575  0.78933581  0.84303138    -0.55200
C894        C  0.08728849  0.78938101  0.81584701     0.08800
C895        C  0.09537081  0.75842962  0.89210775    -0.54700
C896        C  0.12015699  0.75825867  0.86451625     0.09300
H897        H  0.09332851  0.83571883  0.91794400     0.13900
H898        H  0.14119479  0.78837599  0.81439990    -0.00400
H899        H  0.03686816  0.78866867  0.83313195     0.14200
H900        H  0.09212903  0.73960435  0.91497911     0.14000
C901        C  0.42545874  0.78573270  0.88843592     0.85700
C902        C  0.40447891  0.75569207  0.89449490    -0.54500
C903        C  0.37778967  0.75456894  0.86913816     0.08700
C904        C  0.37397771  0.78370156  0.84017346     0.19600
C905        C  0.43306966  0.78601828  0.84155369    -0.55200
C906        C  0.40600109  0.78484056  0.81576905     0.08800
C907        C  0.40209396  0.81408807  0.89479663    -0.54700
C908        C  0.37500711  0.81316490  0.86964987     0.09300
H909        H  0.40990415  0.73702288  0.91714742     0.13900
H910        H  0.35178850  0.78319853  0.82029812    -0.00400
H911        H  0.45765895  0.78666923  0.83002798     0.14200
H912        H  0.40631936  0.83299526  0.91784297     0.14000
C913        C  0.24910964  0.96368262  0.89080806     0.85700
C914        C  0.27701398  0.93974940  0.89927115    -0.54500
C915        C  0.27752891  0.91423790  0.87212958     0.08700
C916        C  0.24976103  0.91483246  0.83954057     0.19600
C917        C  0.25256223  0.97337330  0.84494358    -0.55200
C918        C  0.25319966  0.94769425  0.81797032     0.08800
C919        C  0.21834032  0.94291105  0.89183731    -0.54700
C920        C  0.21862768  0.91736890  0.86489883     0.09300
H921        H  0.29462120  0.94263891  0.92463826     0.13900
H922        H  0.24962245  0.89383247  0.81791367    -0.00400
H923        H  0.25475253  0.49818566  0.83487920     0.14200
H924        H  0.19845161  0.94734520  0.91287494     0.14000
C925        C  0.25138489  0.61157639  0.56577241     0.85700
C926        C  0.28234319  0.63195119  0.56269661    -0.54500
C927        C  0.28353855  0.65721600  0.58981276     0.08700
C928        C  0.25394317  0.65963545  0.61812504     0.19600
C929        C  0.24993598  0.60126566  0.61153521    -0.55200
C930        C  0.25097988  0.62656947  0.63888961     0.08800
C931        C  0.22361495  0.63607199  0.56001299    -0.54700
C932        C  0.22456394  0.66145814  0.58778712     0.09300
H933        H  0.30078733  0.62805973  0.53942904     0.13900
H934        H  0.25610844  0.67896984  0.64180119    -0.00400
H935        H  0.24752058  0.57640863  0.62134716     0.14200
H936        H  0.20513885  0.63346307  0.53567325     0.14000
C937        C  0.07529576  0.78967167  0.56392529     0.85700
C938        C  0.09898325  0.76143657  0.55824683    -0.54500
C939        C  0.12355817  0.76024158  0.58749216     0.08700
C940        C  0.12277937  0.78891769  0.61835407     0.19600
C941        C  0.06401491  0.78755492  0.60905147    -0.55200
C942        C  0.08898411  0.78712240  0.63745511     0.08800
C943        C  0.09690326  0.81976757  0.56268594    -0.54700
C944        C  0.12191352  0.81944652  0.59118648     0.09300
H945        H  0.09657524  0.74441500  0.53258022     0.13900
H946        H  0.14241413  0.78923656  0.64246158    -0.00400
H947        H  0.03869540  0.78632096  0.61774813     0.14200
H948        H  0.09347343  0.83904731  0.54032902     0.14000
C949        C  0.42697842  0.78781809  0.56144576     0.85700
C950        C  0.40436558  0.81657522  0.55330170    -0.54500
C951        C  0.37799135  0.81716524  0.57797148     0.08700
C952        C  0.37616119  0.78903552  0.60844226     0.19600
C953        C  0.43535782  0.78951430  0.60852785    -0.55200
C954        C  0.40855523  0.79008721  0.63346496     0.08800
C955        C  0.40502646  0.75796666  0.55642886    -0.54700
C956        C  0.37853214  0.75864924  0.58117496     0.09300
H957        H  0.40883958  0.83509123  0.53034126     0.13900
H958        H  0.35409745  0.78987476  0.62777151    -0.00400
H959        H  0.46009094  0.78883525  0.62069780     0.14200
H960        H  0.40991621  0.73801771  0.53537266     0.14000
C961        C  0.25103585  0.96469075  0.56465534     0.85700
C962        C  0.22115670  0.94233966  0.56213038    -0.54500
C963        C  0.22313512  0.91648876  0.58827121     0.08700
C964        C  0.25469897  0.91573282  0.61461201     0.19600
C965        C  0.25420635  0.97431833  0.61089173    -0.55200
C966        C  0.25550594  0.94856765  0.63739990     0.08800
C967        C  0.28002258  0.94252857  0.55651355    -0.54700
C968        C  0.28215066  0.91723049  0.58285366     0.09300
H969        H  0.20056676  0.94626933  0.54115563     0.13900
H970        H  0.25630116  0.89477762  0.63577826    -0.00400
H971        H  0.25521317  0.49920317  0.62143047     0.14200
H972        H  0.29739845  0.94635495  0.53196032     0.14000
O973        O  0.03413927  0.81490912  0.93125896    -0.73700
O974        O  0.46700805  0.81430827  0.51984106    -0.74700
O975        O  0.03613602  0.81573090  0.51885102    -0.63300
O976        O  0.46535612  0.81372414  0.93129350    -0.71700
O977        O  0.46673936  0.76032640  0.93117816    -0.71300
O978        O  0.03591206  0.76229252  0.52048015    -0.62500
O979        O  0.46692313  0.76089129  0.51943415    -0.78800
O980        O  0.03559677  0.76148290  0.93287960    -0.73800
Cu981      Cu  0.50061558  0.81653095  0.97533790     1.04600
Cu982      Cu  0.50134759  0.75938987  0.97599735     1.04300
C983        C  0.04612442  0.78819795  0.91900516     0.92500
C984        C  0.45562340  0.78760738  0.53281643     0.91600
C985        C  0.04765399  0.78928384  0.53280478     0.83800
C986        C  0.45451064  0.78668182  0.91778286     0.90100
O987        O  0.27587507  0.50305120  0.93470127    -0.73700
O988        O  0.27660992  0.57301059  0.52066475    -0.74700
O989        O  0.27653958  0.50484588  0.52276969    -0.63300
O990        O  0.27499796  0.57132040  0.93312482    -0.71700
O991        O  0.22122106  0.57264499  0.93500667    -0.71300
O992        O  0.22271679  0.50308296  0.52121152    -0.62500
O993        O  0.22286833  0.57191156  0.52329763    -0.75000
O994        O  0.22203567  0.50347130  0.93336612    -0.73800
Cu995      Cu  0.27782915  0.53805760  0.97782807     1.04600
Cu996      Cu  0.22028100  0.53778470  0.97817695     1.04300
C997        C  0.24892593  0.99173410  0.92090148     0.92500
C998        C  0.25013406  0.58390017  0.53520287     0.91600
C999        C  0.24993294  0.99264419  0.53513095     0.83800
C1000       C  0.24791413  0.58338378  0.92102028     0.90100
C1001       C  0.35953455  0.87044640  0.60266660    -0.27100
C1002       C  0.35424819  0.84355763  0.57683479    -0.15100
C1003       C  0.32697592  0.84242162  0.54980209     0.35500
C1004       C  0.30379504  0.86709696  0.55189657    -0.26500
C1005       C  0.30802525  0.89296542  0.57973535    -0.15700
C1006       C  0.33706590  0.89583876  0.60331740     0.36600
N1007       N  0.34452153  0.92517141  0.62558017    -0.90000
H1008       H  0.38147594  0.87178665  0.62177719     0.17700
H1009       H  0.28242943  0.86628911  0.53171379     0.17700
N1010       N  0.32293642  0.81625740  0.52061085    -0.89000
H1011       H  0.36711052  0.92344060  0.64079023     0.35100
H1012       H  0.32743143  0.92848813  0.64867459     0.40200
H1013       H  0.34182936  0.81753370  0.49937979     0.39800
H1014       H  0.30134099  0.81888262  0.50332050     0.34700
C1015       C  0.16449742  0.90106805  0.59305653    -0.27100
C1016       C  0.19721562  0.89163130  0.59094440    -0.15100
C1017       C  0.20474984  0.85853208  0.59096614     0.35500
C1018       C  0.17980685  0.83572721  0.59148281    -0.26500
C1019       C  0.14723981  0.84491887  0.59320644    -0.15700
C1020       C  0.13943143  0.87800332  0.59479889     0.36600
N1021       N  0.10620476  0.88798496  0.59836755    -0.90000
H1022       H  0.15853936  0.92647527  0.59386490     0.17700
H1023       H  0.18605907  0.81069148  0.58842034     0.17700
N1024       N  0.23761569  0.84770158  0.58869319    -0.89000
H1025       H  0.10459373  0.91310506  0.59932401     0.35100
H1026       H  0.09789384  0.87969956  0.62697896     0.40200
H1027       H  0.23958732  0.83294269  0.56230528     0.39800
H1028       H  0.24266870  0.83361847  0.61492604     0.34700
C1029       C  0.17955859  0.74108860  0.60525638    -0.27100
C1030       C  0.14845525  0.73397178  0.58943044    -0.15100
C1031       C  0.14183316  0.70197735  0.57625280     0.35500
C1032       C  0.16701999  0.67913740  0.57609884    -0.26500
C1033       C  0.19885694  0.68703691  0.58914568    -0.15700
C1034       C  0.20476519  0.71860747  0.60450061     0.36600
N1035       N  0.23628222  0.72885057  0.61859760    -0.90000
H1036       H  0.18514800  0.76452939  0.61785319     0.17700
H1037       H  0.16130001  0.65468950  0.56669136     0.17700
N1038       N  0.10942842  0.69223448  0.56460384    -0.89000
H1039       H  0.24282278  0.74917712  0.60162106     0.35100
H1040       H  0.23468923  0.73588396  0.64987834     0.40200
H1041       H  0.09523521  0.69400551  0.59120486     0.39800
H1042       H  0.10883835  0.66809877  0.55511273     0.34700
C1043       C  0.33907544  0.67834576  0.60429084    -0.27100
C1044       C  0.30812156  0.68284666  0.58656033    -0.15100
C1045       C  0.30104564  0.71128646  0.56447547     0.35500
C1046       C  0.32415881  0.73609261  0.56394745    -0.26500
C1047       C  0.35484015  0.73202430  0.58260939    -0.15700
C1048       C  0.36275403  0.70264973  0.60211500     0.36600
N1049       N  0.39474902  0.69764967  0.61946559    -0.90000
H1050       H  0.34467022  0.65590372  0.61989161     0.17700
H1051       H  0.31851628  0.75831658  0.54809568     0.17700
N1052       N  0.27069811  0.71454444  0.54206926    -0.89000
H1053       H  0.39674814  0.67455328  0.63203460     0.35100
H1054       H  0.39806640  0.71384345  0.64424917     0.40200
H1055       H  0.26991204  0.69688931  0.51869184     0.39800
H1056       H  0.26939455  0.73681962  0.52711095     0.34700
C1057       C  0.23801670  0.97339313  0.74993396    -0.27100
C1058       C  0.25666459  0.95070034  0.77210209    -0.15100
C1059       C  0.27653849  0.92916895  0.74998943     0.35500
C1060       C  0.27545570  0.92903612  0.70635384    -0.26500
C1061       C  0.25649348  0.95119449  0.68382599    -0.15700
C1062       C  0.23757558  0.97381465  0.70597119     0.36600
N1063       N  0.21670014  0.99592612  0.68399469    -0.90000
H1064       H  0.22255713  0.98980834  0.76688612     0.17700
H1065       H  0.28955929  0.91121012  0.69005059     0.17700
N1066       N  0.29806872  0.90762503  0.77188801    -0.89000
H1067       H  0.20464364  0.01098214  0.70487892     0.35100
H1068       H  0.19883901  0.98237660  0.66829013     0.40200
H1069       H  0.31547138  0.92176424  0.78750463     0.39800
H1070       H  0.31069214  0.89300831  0.75106598     0.34700
C1071       C  0.43125133  0.80358674  0.74907041    -0.27100
C1072       C  0.40741002  0.78510346  0.76889472    -0.15100
C1073       C  0.38479318  0.76798095  0.74340413     0.35500
C1074       C  0.38612650  0.77000828  0.69988850    -0.26500
C1075       C  0.40957027  0.78864478  0.68012065    -0.15700
C1076       C  0.43237050  0.80568238  0.70519845     0.36600
N1077       N  0.45584569  0.82619900  0.68652756    -0.90000
H1078       H  0.44857693  0.81739884  0.76765618     0.17700
H1079       H  0.36867383  0.75623316  0.68147244     0.17700
N1080       N  0.36065165  0.74769394  0.76098566    -0.89000
H1081       H  0.47893547  0.81846937  0.69611337     0.35100
H1082       H  0.45248075  0.84956934  0.69801074     0.40200
H1083       H  0.36322082  0.72462743  0.74817631     0.39800
H1084       H  0.33785389  0.75632617  0.75155584     0.34700
C1085       C  0.29312054  0.85632412  0.86908772    -0.27100
C1086       C  0.30274514  0.88863030  0.87302286    -0.15100
C1087       C  0.33614770  0.89606536  0.87621296     0.35500
C1088       C  0.35908771  0.87104363  0.87493978    -0.26500
C1089       C  0.34952320  0.83866492  0.87090675    -0.15700
C1090       C  0.31608282  0.83133585  0.86869856     0.36600
N1091       N  0.30516032  0.79860837  0.86771863    -0.90000
H1092       H  0.26752610  0.85035229  0.86721185     0.17700
H1093       H  0.38468581  0.87694766  0.87641749     0.17700
N1094       N  0.34675179  0.92896872  0.87999354    -0.89000
H1095       H  0.29074963  0.79522385  0.84086621     0.35100
H1096       H  0.29057038  0.79493303  0.89359045     0.40200
H1097       H  0.34000191  0.94085262  0.85256303     0.39800
H1098       H  0.37205730  0.93023200  0.88235776     0.34700
C1099       C  0.09881172  0.76184404  0.74959133    -0.27100
C1100       C  0.08325217  0.78723119  0.77018357    -0.15100
C1101       C  0.06724962  0.81133483  0.74672981     0.35500
C1102       C  0.06758571  0.80978077  0.70317004    -0.26500
C1103       C  0.08440780  0.78513447  0.68274464    -0.15700
C1104       C  0.09958779  0.76055230  0.70598445     0.36600
N1105       N  0.11620902  0.73476945  0.68517334    -0.90000
H1106       H  0.11107135  0.74337906  0.76769553     0.17700
H1107       H  0.05627079  0.82888769  0.68521053     0.17700
N1108       N  0.05252568  0.83869991  0.76615378    -0.89000
H1109       H  0.12643309  0.71883575  0.70682833     0.35100
H1110       H  0.09890189  0.72170633  0.66782717     0.40200
H1111       H  0.06996785  0.85016836  0.78514975     0.39800
H1112       H  0.03366149  0.83077400  0.78477046     0.34700
C1113       C  0.18547200  0.87774108  0.90220569    -0.27100
C1114       C  0.19304264  0.89232589  0.86424877    -0.15100
C1115       C  0.17700535  0.88183018  0.82704225     0.35500
C1116       C  0.15453977  0.85653394  0.82890970    -0.26500
C1117       C  0.14669855  0.84241660  0.86699513    -0.15700
C1118       C  0.16245967  0.85303198  0.90391774     0.36600
N1119       N  0.15587224  0.83815844  0.94304529    -0.90000
H1120       H  0.19792417  0.88524260  0.93073657     0.17700
H1121       H  0.14220107  0.84864257  0.80047598     0.17700
N1122       N  0.18199791  0.89663655  0.78723883    -0.89000
H1123       H  0.14791789  0.85599987  0.96363192     0.35100
H1124       H  0.17761289  0.82875531  0.95508776     0.40200
H1125       H  0.19659270  0.91701514  0.79006191     0.39800
H1126       H  0.15950878  0.90510701  0.77638693     0.34700
C1127       C  0.22464240  0.64077008  0.74988031    -0.27100
C1128       C  0.24787164  0.62296165  0.77233127    -0.15100
C1129       C  0.27070469  0.60416717  0.75079117     0.35500
C1130       C  0.27041016  0.60436083  0.70690300    -0.26500
C1131       C  0.24794333  0.62320781  0.68455684    -0.15700
C1132       C  0.22414488  0.64073833  0.70615977     0.36600
N1133       N  0.19955318  0.65835879  0.68357668    -0.90000
H1134       H  0.20686498  0.65482878  0.76660997     0.17700
H1135       H  0.28860541  0.59093296  0.69011368     0.17700
N1136       N  0.29481623  0.58605112  0.77351777    -0.89000
H1137       H  0.18396031  0.67006520  0.70409832     0.35100
H1138       H  0.18543478  0.64163436  0.66679040     0.40200
H1139       H  0.30966367  0.60247337  0.78975128     0.39800
H1140       H  0.30976154  0.57352722  0.75299979     0.34700
C1141       C  0.16147901  0.67636800  0.86821228    -0.27100
C1142       C  0.19427399  0.68523355  0.86556269    -0.15100
C1143       C  0.20210939  0.71807138  0.86002754     0.35500
C1144       C  0.17744057  0.74119559  0.85892980    -0.26500
C1145       C  0.14489469  0.73243761  0.86290300    -0.15700
C1146       C  0.13665656  0.69955308  0.86612001     0.36600
N1147       N  0.10319349  0.68978339  0.86626868    -0.90000
H1148       H  0.15514126  0.65116143  0.87094225     0.17700
H1149       H  0.18402809  0.76636031  0.85630004     0.17700
N1150       N  0.23504118  0.72850933  0.85669570    -0.89000
H1151       H  0.10131188  0.66475619  0.86866886     0.35100
H1152       H  0.09285588  0.69597909  0.83739585     0.40200
H1153       H  0.23932029  0.74631062  0.87930374     0.39800
H1154       H  0.23748885  0.73938007  0.82760396     0.34700
C1155       C  0.32930439  0.67953964  0.84332333    -0.27100
C1156       C  0.30429775  0.68233071  0.87204928    -0.15100
C1157       C  0.30529357  0.70716097  0.90254076     0.35500
C1158       C  0.33005426  0.73011045  0.90115872    -0.26500
C1159       C  0.35410522  0.72823496  0.87101863    -0.15700
C1160       C  0.35505361  0.70146631  0.84362192     0.36600
N1161       N  0.38185998  0.69535292  0.81659997    -0.90000
H1162       H  0.32928550  0.65960820  0.82128826     0.17700
H1163       H  0.33042849  0.74973708  0.92365838     0.17700
N1164       N  0.28227745  0.70948899  0.93563714    -0.89000
H1165       H  0.39217049  0.67335013  0.82535847     0.35100
H1166       H  0.40013197  0.71255503  0.82054867     0.40200
H1167       H  0.26365962  0.69261792  0.93226153     0.39800
H1168       H  0.27140561  0.73219123  0.93442754     0.34700
C1169       C  0.74788333  0.11114797  0.39114077     0.85700
C1170       C  0.71868701  0.13423912  0.39458190    -0.54500
C1171       C  0.71966877  0.15974844  0.36766272     0.08700
C1172       C  0.74958886  0.15934025  0.33983004     0.19600
C1173       C  0.74821995  0.10084735  0.34510185    -0.55200
C1174       C  0.74891435  0.12622581  0.31826641     0.08800
C1175       C  0.77767870  0.13294289  0.39738469    -0.54700
C1176       C  0.77844088  0.15804890  0.37054170     0.09300
H1177       H  0.69942267  0.13106025  0.41682162     0.13900
H1178       H  0.75086638  0.17941675  0.31730605    -0.00400
H1179       H  0.74729706  0.07590507  0.33471013     0.14200
H1180       H  0.79636491  0.12923290  0.42121638     0.14000
C1181       C  0.57342159  0.28823960  0.38885173     0.85700
C1182       C  0.59663406  0.31689547  0.39471735    -0.54500
C1183       C  0.62166166  0.31689501  0.36749490     0.08700
C1184       C  0.62100957  0.28829223  0.33687781     0.19600
C1185       C  0.56219577  0.28933446  0.34303192    -0.55200
C1186       C  0.58728839  0.28937942  0.31584753     0.08800
C1187       C  0.59537067  0.25842756  0.39210792    -0.54700
C1188       C  0.62015683  0.25825636  0.36451629     0.09300
H1189       H  0.59332967  0.33571672  0.41794458     0.13900
H1190       H  0.64119456  0.28837347  0.31439963    -0.00400
H1191       H  0.53686813  0.28866828  0.33313246     0.14200
H1192       H  0.59212896  0.23960262  0.41497975     0.14000
C1193       C  0.92545869  0.28573177  0.38843543     0.85700
C1194       C  0.90447901  0.25569093  0.39449342    -0.54500
C1195       C  0.87778971  0.25456830  0.36913677     0.08700
C1196       C  0.87397755  0.28370155  0.34017322     0.19600
C1197       C  0.93306948  0.28601837  0.34155322    -0.55200
C1198       C  0.90600081  0.28484110  0.31576876     0.08800
C1199       C  0.90209390  0.31408693  0.39479728    -0.54700
C1200       C  0.87500713  0.31316429  0.36965053     0.09300
H1201       H  0.90990440  0.23702121  0.41714514     0.13900
H1202       H  0.85178825  0.28319899  0.32029804    -0.00400
H1203       H  0.95765873  0.28666954  0.33002738     0.14200
H1204       H  0.90631930  0.33299370  0.41784422     0.14000
C1205       C  0.74910926  0.46368141  0.39080778     0.85700
C1206       C  0.77701433  0.43974908  0.39927073    -0.54500
C1207       C  0.77752984  0.41423754  0.37212936     0.08700
C1208       C  0.74976188  0.41483118  0.33954045     0.19600
C1209       C  0.75256130  0.47337211  0.34494328    -0.55200
C1210       C  0.75319943  0.44769305  0.31797011     0.08800
C1211       C  0.71834056  0.44290880  0.39183739    -0.54700
C1212       C  0.71862859  0.41736655  0.36489893     0.09300
H1213       H  0.79462136  0.44263898  0.42463796     0.13900
H1214       H  0.74962393  0.39383116  0.31791363    -0.00400
H1215       H  0.75475094  0.99818452  0.33487867     0.14200
H1216       H  0.69845181  0.44734243  0.41287513     0.14000
C1217       C  0.75138520  0.11157665  0.06577350     0.85700
C1218       C  0.78234333  0.13195176  0.06269839    -0.54500
C1219       C  0.78353849  0.15721609  0.08981532     0.08700
C1220       C  0.75394282  0.15963499  0.11812727     0.19600
C1221       C  0.74993641  0.10126521  0.11153591    -0.55200
C1222       C  0.75097989  0.12656860  0.13889081     0.08800
C1223       C  0.72361494  0.13607199  0.06001458    -0.54700
C1224       C  0.72456362  0.16145779  0.08778918     0.09300
H1225       H  0.80078764  0.12806071  0.03943095     0.13900
H1226       H  0.75610756  0.17896911  0.14180391    -0.00400
H1227       H  0.74752142  0.07640800  0.12134729     0.14200
H1228       H  0.70513880  0.13346315  0.03567489     0.14000
C1229       C  0.57529624  0.28967240  0.06392616     0.85700
C1230       C  0.59898364  0.26143710  0.05824805    -0.54500
C1231       C  0.62355823  0.26024192  0.08749377     0.08700
C1232       C  0.62277936  0.28891809  0.11835569     0.19600
C1233       C  0.56401497  0.28755569  0.10905222    -0.55200
C1234       C  0.58898396  0.28712311  0.13745615     0.08800
C1235       C  0.59690388  0.31976826  0.06268731    -0.54700
C1236       C  0.62191377  0.31944710  0.09118841     0.09300
H1237       H  0.59657573  0.24441535  0.03258160     0.13900
H1238       H  0.64241392  0.28923672  0.14246349    -0.00400
H1239       H  0.53869538  0.28632191  0.11774858     0.14200
H1240       H  0.59347424  0.33904815  0.04033056     0.14000
C1241       C  0.92697906  0.28781792  0.06144650     0.85700
C1242       C  0.90436528  0.31657415  0.05330109    -0.54500
C1243       C  0.87799088  0.31716392  0.07797060     0.08700
C1244       C  0.87616151  0.28903480  0.10844235     0.19600
C1245       C  0.93535813  0.28951551  0.10852856    -0.55200
C1246       C  0.90855534  0.29008805  0.13346529     0.08800
C1247       C  0.90502817  0.25796554  0.05643070    -0.54700
C1248       C  0.87853369  0.25864788  0.08117653     0.09300
H1249       H  0.90883906  0.33509001  0.03034037     0.13900
H1250       H  0.85409760  0.28987385  0.12777130    -0.00400
H1251       H  0.96009120  0.28883743  0.12069881     0.14200
H1252       H  0.90991862  0.23801631  0.03537526     0.14000
C1253       C  0.75103658  0.46469096  0.06465584     0.85700
C1254       C  0.72115690  0.44234035  0.06213218    -0.54500
C1255       C  0.72313546  0.41648940  0.08827310     0.08700
C1256       C  0.75469987  0.41573312  0.11461274     0.19600
C1257       C  0.75420821  0.47431859  0.11089206    -0.55200
C1258       C  0.75550787  0.44856799  0.13740024     0.08800
C1259       C  0.78002270  0.44252817  0.05651318    -0.54700
C1260       C  0.78215091  0.41723015  0.08285347     0.09300
H1261       H  0.70056659  0.44627034  0.04115814     0.13900
H1262       H  0.75630226  0.39477815  0.13577935    -0.00400
H1263       H  0.75521520  0.99920337  0.12143051     0.14200
H1264       H  0.79739812  0.44635421  0.03195935     0.14000
O1265       O  0.53413935  0.31490770  0.43125881    -0.73700
O1266       O  0.96700868  0.31430880  0.01984256    -0.74700
O1267       O  0.53613676  0.31573186  0.01885162    -0.63300
O1268       O  0.96535622  0.31372300  0.43129245    -0.71700
O1269       O  0.96673894  0.26032523  0.43117790    -0.71300
O1270       O  0.53591284  0.26229348  0.02048018    -0.62500
O1271       O  0.96692404  0.26089182  0.01943463    -0.78800
O1272       O  0.53559644  0.26148148  0.43287982    -0.73800
Cu1273     Cu  0.00061526  0.31652993  0.47533710     1.04600
Cu1274     Cu  0.00134697  0.25938881  0.47599730     1.04300
C1275       C  0.54612448  0.28819642  0.41900544     0.92500
C1276       C  0.95562419  0.28760769  0.03281745     0.91600
C1277       C  0.54765471  0.28928473  0.03280520     0.83800
C1278       C  0.95451054  0.28668067  0.41778221     0.90100
O1279       O  0.77587452  0.00305047  0.43470050    -0.73700
O1280       O  0.77661038  0.07301171  0.02066484    -0.74700
O1281       O  0.77654013  0.00484674  0.02277064    -0.63300
O1282       O  0.77499850  0.07131958  0.43312526    -0.71700
O1283       O  0.72122147  0.07264361  0.43500511    -0.71300
O1284       O  0.72271737  0.00308308  0.02121182    -0.62500
O1285       O  0.72286885  0.07191175  0.02329898    -0.75000
O1286       O  0.72203511  0.00347001  0.43336576    -0.73800
Cu1287     Cu  0.77782889  0.03805668  0.47782775     1.04600
Cu1288     Cu  0.72028066  0.03778400  0.47817599     1.04300
C1289       C  0.74892533  0.49173303  0.42090106     0.92500
C1290       C  0.75013454  0.08390077  0.03520361     0.91600
C1291       C  0.74993370  0.49264460  0.03513151     0.83800
C1292       C  0.74791482  0.08338267  0.42101989     0.90100
C1293       C  0.85953553  0.37044629  0.10266351    -0.27100
C1294       C  0.85424764  0.34355634  0.07683420    -0.15100
C1295       C  0.82697369  0.34241913  0.04980438     0.35500
C1296       C  0.80379333  0.36709497  0.05189864    -0.26500
C1297       C  0.80802518  0.39296471  0.07973497    -0.15700
C1298       C  0.83706688  0.39583868  0.10331480     0.36600
N1299       N  0.84452316  0.42517170  0.12557636    -0.90000
H1300       H  0.88147790  0.37178726  0.12177217     0.17700
H1301       H  0.78242681  0.36628653  0.03171751     0.17700
N1302       N  0.82293205  0.31625339  0.02061596    -0.89000
H1303       H  0.86711298  0.42344141  0.14078462     0.35100
H1304       H  0.82743404  0.42848853  0.14867200     0.40200
H1305       H  0.84182395  0.31752791  0.99938314     0.39800
H1306       H  0.80133579  0.31887804  0.00332728     0.34700
C1307       C  0.66449756  0.40106882  0.09305885    -0.27100
C1308       C  0.69721581  0.39163203  0.09094735    -0.15100
C1309       C  0.70474992  0.35853274  0.09097068     0.35500
C1310       C  0.67980691  0.33572796  0.09148767    -0.26500
C1311       C  0.64723987  0.34491963  0.09320965    -0.15700
C1312       C  0.63943149  0.37800411  0.09480131     0.36600
N1313       N  0.60620478  0.38798586  0.09836905    -0.90000
H1314       H  0.65853948  0.42647605  0.09386633     0.17700
H1315       H  0.68605921  0.31069222  0.08842616     0.17700
N1316       N  0.73761567  0.34770187  0.08869853    -0.89000
H1317       H  0.60459384  0.41310596  0.09932520     0.35100
H1318       H  0.59789342  0.37970073  0.12698041     0.40200
H1319       H  0.73958719  0.33294205  0.06231146     0.39800
H1320       H  0.74266847  0.33361957  0.11493217     0.34700
C1321       C  0.67955839  0.24108832  0.10525824    -0.27100
C1322       C  0.64845496  0.23397172  0.08943255    -0.15100
C1323       C  0.64183252  0.20197715  0.07625567     0.35500
C1324       C  0.66701927  0.17913696  0.07610167    -0.26500
C1325       C  0.69885643  0.18703644  0.08914793    -0.15700
C1326       C  0.70476488  0.21860707  0.10450234     0.36600
N1327       N  0.73628214  0.22885019  0.11859838    -0.90000
H1328       H  0.68514797  0.26452910  0.11785486     0.17700
H1329       H  0.66129921  0.15468899  0.06669449     0.17700
N1330       N  0.60942756  0.19223446  0.06460751    -0.89000
H1331       H  0.74282236  0.24917666  0.10162145     0.35100
H1332       H  0.73468969  0.23588380  0.14987910     0.40200
H1333       H  0.59523448  0.19400665  0.09120855     0.39800
H1334       H  0.60883709  0.16809841  0.05511799     0.34700
C1335       C  0.83907559  0.17834534  0.10429510    -0.27100
C1336       C  0.80812186  0.18284653  0.08656399    -0.15100
C1337       C  0.80104674  0.21128600  0.06447812     0.35500
C1338       C  0.82416060  0.23609135  0.06394903    -0.26500
C1339       C  0.85484178  0.23202286  0.08261118    -0.15700
C1340       C  0.86275486  0.20264869  0.10211834     0.36600
N1341       N  0.89474970  0.19764832  0.11946930    -0.90000
H1342       H  0.84466979  0.15590349  0.11989667     0.17700
H1343       H  0.81851865  0.25831491  0.04809625     0.17700
N1344       N  0.77069925  0.21454447  0.04207193    -0.89000
H1345       H  0.89674814  0.17455238  0.13203980     0.35100
H1346       H  0.89806761  0.21384301  0.14425182     0.40200
H1347       H  0.76991268  0.19688910  0.01869485     0.39800
H1348       H  0.76939616  0.23681952  0.02711321     0.34700
C1349       C  0.73801688  0.47339209  0.24993382    -0.27100
C1350       C  0.75666480  0.45069935  0.27210199    -0.15100
C1351       C  0.77653969  0.42916873  0.24998953     0.35500
C1352       C  0.77545806  0.42903684  0.20635392    -0.26500
C1353       C  0.75649550  0.45119491  0.18382613    -0.15700
C1354       C  0.73757656  0.47381424  0.20597114     0.36600
N1355       N  0.71670091  0.49592542  0.18399442    -0.90000
H1356       H  0.72255663  0.48980671  0.26688587     0.17700
H1357       H  0.78956239  0.41121148  0.19005055     0.17700
N1358       N  0.79806942  0.40762443  0.27188827    -0.89000
H1359       H  0.70464353  0.51098080  0.20487861     0.35100
H1360       H  0.69884051  0.48237564  0.16828888     0.40200
H1361       H  0.81547129  0.42176333  0.28750693     0.39800
H1362       H  0.81069387  0.39300858  0.25106627     0.34700
C1363       C  0.93125052  0.30358844  0.24907056    -0.27100
C1364       C  0.90740949  0.28510463  0.26889460    -0.15100
C1365       C  0.88479274  0.26798207  0.24340391     0.35500
C1366       C  0.88612640  0.27000921  0.19988842    -0.26500
C1367       C  0.90957004  0.28864600  0.18012083    -0.15700
C1368       C  0.93236972  0.30568421  0.20519868     0.36600
N1369       N  0.95584420  0.32620170  0.18652788    -0.90000
H1370       H  0.94857579  0.31740084  0.26765648     0.17700
H1371       H  0.86867407  0.25623371  0.18147229     0.17700
N1372       N  0.86065089  0.24769529  0.26098518    -0.89000
H1373       H  0.97893429  0.31847282  0.19611360     0.35100
H1374       H  0.95247843  0.34957185  0.19801113     0.40200
H1375       H  0.86321983  0.22462882  0.24817574     0.39800
H1376       H  0.83785327  0.25632780  0.25155511     0.34700
C1377       C  0.79312119  0.35632396  0.36908830    -0.27100
C1378       C  0.80274602  0.38863003  0.37302356    -0.15100
C1379       C  0.83614857  0.39606489  0.37621497     0.35500
C1380       C  0.85908838  0.37104306  0.37494150    -0.26500
C1381       C  0.84952359  0.33866447  0.37090782    -0.15700
C1382       C  0.81608323  0.33133558  0.36869954     0.36600
N1383       N  0.80516053  0.29860817  0.36772011    -0.90000
H1384       H  0.76752673  0.35035228  0.36721216     0.17700
H1385       H  0.88468653  0.37694690  0.37641959     0.17700
N1386       N  0.84675283  0.42896807  0.37999740    -0.89000
H1387       H  0.79074969  0.29522350  0.34086787     0.35100
H1388       H  0.79057077  0.29493312  0.39359218     0.40200
H1389       H  0.84000383  0.44085266  0.35256707     0.39800
H1390       H  0.87205832  0.43023109  0.38236292     0.34700
C1391       C  0.59880922  0.26184254  0.24959146    -0.27100
C1392       C  0.58325185  0.28723068  0.27018424    -0.15100
C1393       C  0.56725192  0.31133640  0.24673130     0.35500
C1394       C  0.56758790  0.30978297  0.20317149    -0.26500
C1395       C  0.58440749  0.28513522  0.18274551    -0.15700
C1396       C  0.59958560  0.26055159  0.20598464     0.36600
N1397       N  0.61620575  0.23476830  0.18517300    -0.90000
H1398       H  0.61106724  0.24337631  0.26769526     0.17700
H1399       H  0.55627498  0.32889129  0.18521245     0.17700
N1400       N  0.55253086  0.33870262  0.26615629    -0.89000
H1401       H  0.62642891  0.21883376  0.20682757     0.35100
H1402       H  0.59889813  0.22170630  0.16782614     0.40200
H1403       H  0.56997438  0.35016909  0.28515232     0.39800
H1404       H  0.53366623  0.33077821  0.28477327     0.34700
C1405       C  0.68547388  0.37773753  0.40220560    -0.27100
C1406       C  0.69304428  0.39232262  0.36424873    -0.15100
C1407       C  0.67700723  0.38182656  0.32704215     0.35500
C1408       C  0.65454149  0.35653044  0.32890971    -0.26500
C1409       C  0.64669990  0.34241348  0.36699522    -0.15700
C1410       C  0.66246143  0.35302848  0.40391769     0.36600
N1411       N  0.65587420  0.33815467  0.44304513    -0.90000
H1412       H  0.69792613  0.38523897  0.43073646     0.17700
H1413       H  0.64220282  0.34863904  0.30047598     0.17700
N1414       N  0.68199998  0.39663246  0.28723849    -0.89000
H1415       H  0.64792024  0.35599596  0.46363216     0.35100
H1416       H  0.67761489  0.32875128  0.45508718     0.40200
H1417       H  0.69659461  0.41701124  0.29006133     0.39800
H1418       H  0.65951091  0.40510259  0.27638608     0.34700
C1419       C  0.72464028  0.14076611  0.24988070    -0.27100
C1420       C  0.74787092  0.12295951  0.27233156    -0.15100
C1421       C  0.77070557  0.10416678  0.25079178     0.35500
C1422       C  0.77041132  0.10436065  0.20690371    -0.26500
C1423       C  0.74794310  0.12320603  0.18455762    -0.15700
C1424       C  0.72414296  0.14073437  0.20616025     0.36600
N1425       N  0.69954988  0.15835280  0.18357692    -0.90000
H1426       H  0.70686180  0.15482344  0.26661039     0.17700
H1427       H  0.78860777  0.09093432  0.19011447     0.17700
N1428       N  0.79481828  0.08605239  0.27351864    -0.89000
H1429       H  0.68395581  0.17005770  0.20409844     0.35100
H1430       H  0.68543309  0.14162720  0.16679033     0.40200
H1431       H  0.80966439  0.10247561  0.28975248     0.39800
H1432       H  0.80976470  0.07352967  0.25300080     0.34700
C1433       C  0.66148078  0.17636667  0.36821574    -0.27100
C1434       C  0.69427550  0.18523268  0.36556411    -0.15100
C1435       C  0.70211014  0.21807043  0.36002715     0.35500
C1436       C  0.67744078  0.24119413  0.35892885    -0.26500
C1437       C  0.64489509  0.23243568  0.36290371    -0.15700
C1438       C  0.63665780  0.19955113  0.36612336     0.36600
N1439       N  0.60319500  0.18978066  0.36627481    -0.90000
H1440       H  0.65514357  0.15116010  0.37094739     0.17700
H1441       H  0.68402781  0.26635886  0.35629752     0.17700
N1442       N  0.73504171  0.22850880  0.35669413    -0.89000
H1443       H  0.60131405  0.16475358  0.36867734     0.35100
H1444       H  0.59285621  0.19597466  0.33740200     0.40200
H1445       H  0.73932093  0.24631053  0.37930166     0.39800
H1446       H  0.73748879  0.23937894  0.32760197     0.34700
C1447       C  0.82930618  0.17953797  0.34332108    -0.27100
C1448       C  0.80429950  0.18232840  0.37204708    -0.15100
C1449       C  0.80529467  0.20715866  0.40253853     0.35500
C1450       C  0.83005462  0.23010883  0.40115640    -0.26500
C1451       C  0.85410556  0.22823405  0.37101629    -0.15700
C1452       C  0.85505470  0.20146548  0.34361947     0.36600
N1453       N  0.88186104  0.19535304  0.31659713    -0.90000
H1454       H  0.82928783  0.15960657  0.32128598     0.17700
H1455       H  0.83042840  0.24973534  0.42365625     0.17700
N1456       N  0.78227867  0.20948595  0.43563511    -0.89000
H1457       H  0.89217262  0.17335081  0.32535574     0.35100
H1458       H  0.90013229  0.21255606  0.32054513     0.40200
H1459       H  0.76366154  0.19261409  0.43226006     0.39800
H1460       H  0.77140585  0.23218772  0.43442529     0.34700
C1461       C  0.74788222  0.11114931  0.89114106     0.85700
C1462       C  0.71868480  0.13423942  0.89458035    -0.54500
C1463       C  0.71966685  0.15974899  0.86766148     0.08700
C1464       C  0.74958789  0.15934183  0.83983057     0.19600
C1465       C  0.74822087  0.10084894  0.84510195    -0.55200
C1466       C  0.74891510  0.12622753  0.81826654     0.08800
C1467       C  0.77767648  0.13294546  0.89738694    -0.54700
C1468       C  0.77843881  0.15805150  0.87054402     0.09300
H1469       H  0.69941982  0.13105997  0.91681901     0.13900
H1470       H  0.75086556  0.17941842  0.81730675    -0.00400
H1471       H  0.74729876  0.07590667  0.83471011     0.14200
H1472       H  0.79636215  0.12923590  0.92121945     0.14000
C1473       C  0.57342137  0.28824131  0.88885133     0.85700
C1474       C  0.59663342  0.31689742  0.89471702    -0.54500
C1475       C  0.62166104  0.31689734  0.86749473     0.08700
C1476       C  0.62100949  0.28829446  0.83687765     0.19600
C1477       C  0.56219567  0.28933591  0.84303141    -0.55200
C1478       C  0.58728838  0.28938108  0.81584700     0.08800
C1479       C  0.59537068  0.25842948  0.89210759    -0.54700
C1480       C  0.62015683  0.25825852  0.86451603     0.09300
H1481       H  0.59332867  0.33571868  0.91794414     0.13900
H1482       H  0.64119466  0.28837590  0.81439975    -0.00400
H1483       H  0.53686806  0.28866892  0.83313202     0.14200
H1484       H  0.59212891  0.23960422  0.91497896     0.14000
C1485       C  0.92545876  0.28573264  0.88843609     0.85700
C1486       C  0.90447892  0.25569203  0.89449518    -0.54500
C1487       C  0.87778967  0.25456890  0.86913844     0.08700
C1488       C  0.87397770  0.28370147  0.84017366     0.19600
C1489       C  0.93306965  0.28601815  0.84155386    -0.55200
C1490       C  0.90600107  0.28484044  0.81576923     0.08800
C1491       C  0.90209398  0.31408800  0.89479674    -0.54700
C1492       C  0.87500714  0.31316485  0.86965000     0.09300
H1493       H  0.90990417  0.23702286  0.91714773     0.13900
H1494       H  0.85178850  0.28319840  0.82029831    -0.00400
H1495       H  0.95765893  0.28666911  0.83002811     0.14200
H1496       H  0.90631936  0.33299515  0.91784312     0.14000
C1497       C  0.74910963  0.46368253  0.89080819     0.85700
C1498       C  0.77701400  0.43974936  0.89927124    -0.54500
C1499       C  0.77752897  0.41423787  0.87212965     0.08700
C1500       C  0.74976105  0.41483237  0.83954069     0.19600
C1501       C  0.75256215  0.47337319  0.84494370    -0.55200
C1502       C  0.75319959  0.44769414  0.81797045     0.08800
C1503       C  0.71834037  0.44291089  0.89183752    -0.54700
C1504       C  0.71862774  0.41736876  0.86489902     0.09300
H1505       H  0.79462120  0.44263885  0.92463838     0.13900
H1506       H  0.74962250  0.39383237  0.81791380    -0.00400
H1507       H  0.75475260  0.99818577  0.83487926     0.14200
H1508       H  0.69845167  0.44734500  0.91287518     0.14000
C1509       C  0.75138486  0.11157643  0.56577243     0.85700
C1510       C  0.78234315  0.13195127  0.56269662    -0.54500
C1511       C  0.78353847  0.15721609  0.58981276     0.08700
C1512       C  0.75394308  0.15963552  0.61812502     0.19600
C1513       C  0.74993596  0.10126573  0.61153525    -0.55200
C1514       C  0.75097985  0.12656955  0.63888962     0.08800
C1515       C  0.72361488  0.13607198  0.56001300    -0.54700
C1516       C  0.72456384  0.16145815  0.58778710     0.09300
H1517       H  0.80078730  0.12805983  0.53942906     0.13900
H1518       H  0.75610836  0.17896992  0.64180116    -0.00400
H1519       H  0.74752057  0.07640871  0.62134724     0.14200
H1520       H  0.70513876  0.13346300  0.53567332     0.14000
C1521       C  0.57529562  0.28967171  0.56392524     0.85700
C1522       C  0.59898304  0.26143653  0.55824687    -0.54500
C1523       C  0.62355794  0.26024153  0.58749221     0.08700
C1524       C  0.62277922  0.28891772  0.61835404     0.19600
C1525       C  0.56401474  0.28755507  0.60905144    -0.55200
C1526       C  0.58898395  0.28712259  0.63745508     0.08800
C1527       C  0.59690320  0.31976756  0.56268576    -0.54700
C1528       C  0.62191345  0.31944649  0.59118631     0.09300
H1529       H  0.59657504  0.24441495  0.53258027     0.13900
H1530       H  0.64241397  0.28923659  0.64246156    -0.00400
H1531       H  0.53869523  0.28632119  0.61774812     0.14200
H1532       H  0.59347342  0.33904728  0.54032878     0.14000
C1533       C  0.92697842  0.28781805  0.56144591     0.85700
C1534       C  0.90436562  0.31657525  0.55330191    -0.54500
C1535       C  0.87799141  0.31716529  0.57797175     0.08700
C1536       C  0.87616123  0.28903557  0.60844255     0.19600
C1537       C  0.93535787  0.28951421  0.60852801    -0.55200
C1538       C  0.90855531  0.29008719  0.63346518     0.08800
C1539       C  0.90502640  0.25796667  0.55642906    -0.54700
C1540       C  0.87853212  0.25864928  0.58117524     0.09300
H1541       H  0.90883959  0.33509126  0.53034144     0.13900
H1542       H  0.85409750  0.28987485  0.62777185    -0.00400
H1543       H  0.96009101  0.28883510  0.62069791     0.14200
H1544       H  0.90991610  0.23801770  0.53537286     0.14000
C1545       C  0.75103585  0.46469079  0.56465554     0.85700
C1546       C  0.72115668  0.44233972  0.56213050    -0.54500
C1547       C  0.72313510  0.41648876  0.58827126     0.08700
C1548       C  0.75469895  0.41573278  0.61461211     0.19600
C1549       C  0.75420632  0.47431830  0.61089199    -0.55200
C1550       C  0.75550589  0.44856759  0.63740007     0.08800
C1551       C  0.78002260  0.44252864  0.55651375    -0.54700
C1552       C  0.78215068  0.41723051  0.58285379     0.09300
H1553       H  0.70056675  0.44626945  0.54115574     0.13900
H1554       H  0.75630116  0.39477756  0.63577834    -0.00400
H1555       H  0.75521309  0.99920327  0.62143037     0.14200
H1556       H  0.79739847  0.44635511  0.53196055     0.14000
O1557       O  0.53413927  0.31490912  0.93125898    -0.73700
O1558       O  0.96700787  0.31430818  0.51984099    -0.74700
O1559       O  0.53613587  0.31573095  0.51885108    -0.63300
O1560       O  0.96535605  0.31372420  0.93129375    -0.71700
O1561       O  0.96673949  0.26032647  0.93117821    -0.71300
O1562       O  0.53591204  0.26229256  0.52047997    -0.62500
O1563       O  0.96692317  0.26089120  0.51943431    -0.78800
O1564       O  0.53559681  0.26148291  0.93287981    -0.73800
Cu1565     Cu  0.00061567  0.31653100  0.97533802     1.04600
Cu1566     Cu  0.00134765  0.25938993  0.97599746     1.04300
C1567       C  0.54612442  0.28819794  0.91900524     0.92500
C1568       C  0.95562335  0.28760729  0.53281650     0.91600
C1569       C  0.54765389  0.28928388  0.53280471     0.83800
C1570       C  0.95451066  0.28668186  0.91778303     0.90100
O1571       O  0.77587509  0.00305124  0.93470124    -0.73700
O1572       O  0.77660995  0.07301058  0.52066487    -0.74700
O1573       O  0.77653953  0.00484594  0.52276967    -0.63300
O1574       O  0.77499798  0.07132043  0.93312489    -0.71700
O1575       O  0.72122107  0.07264494  0.93500671    -0.71300
O1576       O  0.72271674  0.00308292  0.52121135    -0.62500
O1577       O  0.72286834  0.07191158  0.52329750    -0.75000
O1578       O  0.72203569  0.00347121  0.93336638    -0.73800
Cu1579     Cu  0.77782920  0.03805759  0.97782810     1.04600
Cu1580     Cu  0.72028102  0.03778470  0.97817707     1.04300
C1581       C  0.74892589  0.49173404  0.92090157     0.92500
C1582       C  0.75013406  0.08390018  0.53520290     0.91600
C1583       C  0.74993300  0.49264424  0.53513113     0.83800
C1584       C  0.74791413  0.08338379  0.92102035     0.90100
C1585       C  0.85953467  0.37044652  0.60266663    -0.27100
C1586       C  0.85424823  0.34355765  0.57683502    -0.15100
C1587       C  0.82697591  0.34242156  0.54980241     0.35500
C1588       C  0.80379502  0.36709690  0.55189686    -0.26500
C1589       C  0.80802531  0.39296547  0.57973544    -0.15700
C1590       C  0.83706604  0.39583889  0.60331734     0.36600
N1591       N  0.84452177  0.42517158  0.62557994    -0.90000
H1592       H  0.88147611  0.37178683  0.62177712     0.17700
H1593       H  0.78242936  0.36628898  0.53171418     0.17700
N1594       N  0.82293641  0.31625737  0.52061114    -0.89000
H1595       H  0.86711079  0.42344084  0.64078987     0.35100
H1596       H  0.82743168  0.42848836  0.64867445     0.40200
H1597       H  0.84182938  0.31753370  0.49938009     0.39800
H1598       H  0.80134101  0.31888261  0.50332076     0.34700
C1599       C  0.66449741  0.40106800  0.59305648    -0.27100
C1600       C  0.69721560  0.39163127  0.59094439    -0.15100
C1601       C  0.70474981  0.35853206  0.59096614     0.35500
C1602       C  0.67980682  0.33572716  0.59148276    -0.26500
C1603       C  0.64723977  0.34491883  0.59320628    -0.15700
C1604       C  0.63943142  0.37800328  0.59479876     0.36600
N1605       N  0.60620476  0.38798498  0.59836731    -0.90000
H1606       H  0.65853936  0.42647522  0.59386483     0.17700
H1607       H  0.68605905  0.31069144  0.58842037     0.17700
N1608       N  0.73761566  0.34770158  0.58869322    -0.89000
H1609       H  0.60459382  0.41310507  0.59932397     0.35100
H1610       H  0.59789370  0.37969951  0.62697865     0.40200
H1611       H  0.73958729  0.33294263  0.56230537     0.39800
H1612       H  0.74266871  0.33361858  0.61492615     0.34700
C1613       C  0.67955834  0.24108852  0.60525639    -0.27100
C1614       C  0.64845502  0.23397171  0.58943046    -0.15100
C1615       C  0.64183296  0.20197728  0.57625276     0.35500
C1616       C  0.66701982  0.17913733  0.57609874    -0.26500
C1617       C  0.69885676  0.18703686  0.58914564    -0.15700
C1618       C  0.70476496  0.21860741  0.60450058     0.36600
N1619       N  0.73628201  0.22885057  0.61859742    -0.90000
H1620       H  0.68514774  0.26452931  0.61785321     0.17700
H1621       H  0.66129989  0.15468943  0.56669117     0.17700
N1622       N  0.60942824  0.19223440  0.56460383    -0.89000
H1623       H  0.74282250  0.24917708  0.60162081     0.35100
H1624       H  0.73468909  0.23588403  0.64987818     0.40200
H1625       H  0.59523503  0.19400549  0.59120486     0.39800
H1626       H  0.60883820  0.16809866  0.55511287     0.34700
C1627       C  0.83907535  0.17834583  0.60429104    -0.27100
C1628       C  0.80812150  0.18284675  0.58656045    -0.15100
C1629       C  0.80104563  0.21128656  0.56447559     0.35500
C1630       C  0.82415883  0.23609268  0.56394761    -0.26500
C1631       C  0.85484012  0.23202436  0.58260968    -0.15700
C1632       C  0.86275397  0.20264978  0.60211526     0.36600
N1633       N  0.89474899  0.19764958  0.61946569    -0.90000
H1634       H  0.84467011  0.15590376  0.61989175     0.17700
H1635       H  0.81851637  0.25831662  0.54809573     0.17700
N1636       N  0.77069816  0.21454454  0.54206926    -0.89000
H1637       H  0.89674811  0.17455314  0.63203452     0.35100
H1638       H  0.89806651  0.21384329  0.64424936     0.40200
H1639       H  0.76991212  0.19688938  0.51869190     0.39800
H1640       H  0.76939466  0.23681971  0.52711086     0.34700
C1641       C  0.73801640  0.47339290  0.74993408    -0.27100
C1642       C  0.75666450  0.45070026  0.77210222    -0.15100
C1643       C  0.77653860  0.42916904  0.74998957     0.35500
C1644       C  0.77545584  0.42903626  0.70635397    -0.26500
C1645       C  0.75649339  0.45119443  0.68382614    -0.15700
C1646       C  0.73757521  0.47381439  0.70597132     0.36600
N1647       N  0.71669941  0.49592551  0.68399476    -0.90000
H1648       H  0.72255668  0.48980796  0.76688627     0.17700
H1649       H  0.78955950  0.41121033  0.69005068     0.17700
N1650       N  0.79806890  0.40762521  0.77188819    -0.89000
H1651       H  0.70464270  0.51098142  0.70487904     0.35100
H1652       H  0.69883853  0.48237576  0.66829016     0.40200
H1653       H  0.81547137  0.42176444  0.78750511     0.39800
H1654       H  0.81069248  0.39300860  0.75106614     0.34700
C1655       C  0.93125126  0.30358677  0.74907065    -0.27100
C1656       C  0.90740996  0.28510344  0.76889492    -0.15100
C1657       C  0.88479321  0.26798086  0.74340428     0.35500
C1658       C  0.88612665  0.27000816  0.69988867    -0.26500
C1659       C  0.90957040  0.28864471  0.68012086    -0.15700
C1660       C  0.93237056  0.30568236  0.70519870     0.36600
N1661       N  0.95584570  0.32619909  0.68652788    -0.90000
H1662       H  0.94857676  0.31739895  0.76765645     0.17700
H1663       H  0.86867405  0.25623298  0.68147257     0.17700
N1664       N  0.86065166  0.24769383  0.76098574    -0.89000
H1665       H  0.97893551  0.31846964  0.69611378     0.35100
H1666       H  0.95248055  0.34956941  0.69801100     0.40200
H1667       H  0.86322091  0.22462730  0.74817649     0.39800
H1668       H  0.83785390  0.25632597  0.75155574     0.34700
C1669       C  0.79312064  0.35632414  0.86908771    -0.27100
C1670       C  0.80274523  0.38863030  0.87302293    -0.15100
C1671       C  0.83614778  0.39606534  0.87621325     0.35500
C1672       C  0.85908777  0.37104361  0.87494014    -0.26500
C1673       C  0.84952327  0.33866490  0.87090692    -0.15700
C1674       C  0.81608290  0.33133585  0.86869861     0.36600
N1675       N  0.80516038  0.29860839  0.86771866    -0.90000
H1676       H  0.76752620  0.35035234  0.86721180     0.17700
H1677       H  0.88468587  0.37694764  0.87641799     0.17700
N1678       N  0.84675188  0.42896868  0.87999408    -0.89000
H1679       H  0.79074967  0.29522387  0.84086631     0.35100
H1680       H  0.79057049  0.29493304  0.89359058     0.40200
H1681       H  0.84000228  0.44085266  0.85256352     0.39800
H1682       H  0.87205740  0.43023193  0.88235869     0.34700
C1683       C  0.59881135  0.26184412  0.74959127    -0.27100
C1684       C  0.58325204  0.28723138  0.77018356    -0.15100
C1685       C  0.56724979  0.31133525  0.74672989     0.35500
C1686       C  0.56758591  0.30978126  0.70317010    -0.26500
C1687       C  0.58440766  0.28513476  0.68274463    -0.15700
C1688       C  0.59958740  0.26055242  0.70598439     0.36600
N1689       N  0.61620845  0.23476946  0.68517326    -0.90000
H1690       H  0.61107083  0.24337903  0.76769541     0.17700
H1691       H  0.55627124  0.32888835  0.68521062     0.17700
N1692       N  0.55252618  0.33870044  0.76615400    -0.89000
H1693       H  0.62643240  0.21883569  0.70682822     0.35100
H1694       H  0.59890122  0.22170647  0.66782703     0.40200
H1695       H  0.56996853  0.35016865  0.78515000     0.39800
H1696       H  0.53366199  0.33077469  0.78477074     0.34700
C1697       C  0.68547209  0.37774088  0.90220577    -0.27100
C1698       C  0.69304269  0.39232575  0.86424889    -0.15100
C1699       C  0.67700534  0.38183013  0.82704239     0.35500
C1700       C  0.65453977  0.35653387  0.82890984    -0.26500
C1701       C  0.64669863  0.34241643  0.86699523    -0.15700
C1702       C  0.66245975  0.35303178  0.90391784     0.36600
N1703       N  0.65587225  0.33815833  0.94304543    -0.90000
H1704       H  0.69792427  0.38524239  0.93073664     0.17700
H1705       H  0.64220105  0.34864254  0.80047613     0.17700
N1706       N  0.68199787  0.39663650  0.78723897    -0.89000
H1707       H  0.64791792  0.35599979  0.96363197     0.35100
H1708       H  0.67761290  0.32875525  0.95508806     0.40200
H1709       H  0.69659269  0.41701510  0.79006209     0.39800
H1710       H  0.65950877  0.40510692  0.77638700     0.34700
C1711       C  0.72464241  0.14077004  0.74988036    -0.27100
C1712       C  0.74787170  0.12296167  0.77233130    -0.15100
C1713       C  0.77070479  0.10416726  0.75079116     0.35500
C1714       C  0.77041025  0.10436096  0.70690299    -0.26500
C1715       C  0.74794334  0.12320789  0.68455686    -0.15700
C1716       C  0.72414484  0.14073829  0.70615983     0.36600
N1717       N  0.69955299  0.15835864  0.68357683    -0.90000
H1718       H  0.70686496  0.15482869  0.76661005     0.17700
H1719       H  0.78860551  0.09093311  0.69011365     0.17700
N1720       N  0.79481637  0.08605125  0.77351775    -0.89000
H1721       H  0.68396008  0.17006493  0.70409855     0.35100
H1722       H  0.68543462  0.14163414  0.66679062     0.40200
H1723       H  0.80966378  0.10247348  0.78975129     0.39800
H1724       H  0.80976173  0.07352742  0.75299972     0.34700
C1725       C  0.66147893  0.17636792  0.86821206    -0.27100
C1726       C  0.69427390  0.18523352  0.86556262    -0.15100
C1727       C  0.70210928  0.21807136  0.86002754     0.35500
C1728       C  0.67744042  0.24119554  0.85892971    -0.26500
C1729       C  0.64489455  0.23243749  0.86290275    -0.15700
C1730       C  0.63665646  0.19955296  0.86611970     0.36600
N1731       N  0.60319338  0.18978323  0.86626834    -0.90000
H1732       H  0.65514120  0.15116134  0.87094199     0.17700
H1733       H  0.68402789  0.26636029  0.85630001     0.17700
N1734       N  0.73504107  0.22850933  0.85669578    -0.89000
H1735       H  0.60131180  0.16475603  0.86866855     0.35100
H1736       H  0.59285576  0.19597888  0.83739551     0.40200
H1737       H  0.73932016  0.24631057  0.87930393     0.39800
H1738       H  0.73748877  0.23938011  0.82760410     0.34700
C1739       C  0.82930425  0.17953977  0.84332345    -0.27100
C1740       C  0.80429760  0.18233089  0.87204934    -0.15100
C1741       C  0.80529346  0.20716110  0.90254088     0.35500
C1742       C  0.83005424  0.23011048  0.90115896    -0.26500
C1743       C  0.85410523  0.22823493  0.87101893    -0.15700
C1744       C  0.85505357  0.20146633  0.84362216     0.36600
N1745       N  0.88185996  0.19535282  0.81660031    -0.90000
H1746       H  0.82928533  0.15960834  0.82128838     0.17700
H1747       H  0.83042850  0.24973708  0.92365866     0.17700
N1748       N  0.78227730  0.20948913  0.93563720    -0.89000
H1749       H  0.89217037  0.17335002  0.82535877     0.35100
H1750       H  0.90013201  0.21255493  0.82054908     0.40200
H1751       H  0.76365932  0.19261826  0.93226133     0.39800
H1752       H  0.77140563  0.23219147  0.93442776     0.34700
C1753       C  0.74788327  0.61114815  0.39114067     0.85700
C1754       C  0.71868684  0.63423919  0.39458161    -0.54500
C1755       C  0.71966857  0.65974848  0.36766234     0.08700
C1756       C  0.74958875  0.65934036  0.33982983     0.19600
C1757       C  0.74822008  0.60084749  0.34510175    -0.55200
C1758       C  0.74891444  0.62622591  0.31826627     0.08800
C1759       C  0.77767853  0.63294321  0.39738467    -0.54700
C1760       C  0.77844070  0.65804918  0.37054160     0.09300
H1761       H  0.69942248  0.63106028  0.41682129     0.13900
H1762       H  0.75086626  0.67941680  0.31730575    -0.00400
H1763       H  0.74729731  0.57590521  0.33471003     0.14200
H1764       H  0.79636471  0.62923329  0.42121640     0.14000
C1765       C  0.57342142  0.78823978  0.38885145     0.85700
C1766       C  0.59663403  0.81689554  0.39471700    -0.54500
C1767       C  0.62166156  0.81689502  0.36749443     0.08700
C1768       C  0.62100926  0.78829224  0.33687735     0.19600
C1769       C  0.56219549  0.78933477  0.34303173    -0.55200
C1770       C  0.58728804  0.78937958  0.31584725     0.08800
C1771       C  0.59537035  0.75842761  0.39210744    -0.54700
C1772       C  0.62015648  0.75825634  0.36451578     0.09300
H1773       H  0.59332976  0.83571681  0.41794423     0.13900
H1774       H  0.64119416  0.78837341  0.31439906    -0.00400
H1775       H  0.53686782  0.78866883  0.33313242     0.14200
H1776       H  0.59212860  0.73960265  0.41497920     0.14000
C1777       C  0.92545898  0.78573164  0.38843504     0.85700
C1778       C  0.90447920  0.75569085  0.39449300    -0.54500
C1779       C  0.87778990  0.75456828  0.36913631     0.08700
C1780       C  0.87397783  0.78370156  0.34017278     0.19600
C1781       C  0.93306978  0.78601824  0.34155282    -0.55200
C1782       C  0.90600112  0.78484100  0.31576832     0.08800
C1783       C  0.90209425  0.81408685  0.39479687    -0.54700
C1784       C  0.87500747  0.81316429  0.36965014     0.09300
H1785       H  0.90990448  0.73702114  0.41714479     0.13900
H1786       H  0.85178850  0.78319907  0.32029764    -0.00400
H1787       H  0.95765903  0.78666937  0.33002701     0.14200
H1788       H  0.90631970  0.83299360  0.41784381     0.14000
C1789       C  0.74910931  0.96368132  0.39080758     0.85700
C1790       C  0.77701441  0.93974906  0.39927059    -0.54500
C1791       C  0.77753002  0.91423750  0.37212926     0.08700
C1792       C  0.74976210  0.91483109  0.33954030     0.19600
C1793       C  0.75256136  0.97337201  0.34494309    -0.55200
C1794       C  0.75319958  0.94769295  0.31796996     0.08800
C1795       C  0.71834066  0.94290865  0.39183712    -0.54700
C1796       C  0.71862875  0.91736642  0.36489863     0.09300
H1797       H  0.79462141  0.94263901  0.42463784     0.13900
H1798       H  0.74962422  0.89383106  0.31791351    -0.00400
H1799       H  0.75475100  0.49818461  0.33487888     0.14200
H1800       H  0.69845191  0.94734221  0.41287485     0.14000
C1801       C  0.75138483  0.61157684  0.06577336     0.85700
C1802       C  0.78234291  0.63195203  0.06269817    -0.54500
C1803       C  0.78353806  0.65721636  0.08981511     0.08700
C1804       C  0.75394244  0.65963515  0.11812718     0.19600
C1805       C  0.74993611  0.60126536  0.11153575    -0.55200
C1806       C  0.75097961  0.62656873  0.13889068     0.08800
C1807       C  0.72361451  0.63607211  0.06001457    -0.54700
C1808       C  0.72456319  0.66145789  0.08778921     0.09300
H1809       H  0.80078724  0.62806101  0.03943073     0.13900
H1810       H  0.75610716  0.67896924  0.14180386    -0.00400
H1811       H  0.74752117  0.57640814  0.12134709     0.14200
H1812       H  0.70513828  0.63346321  0.03567499     0.14000
C1813       C  0.57529606  0.78967253  0.06392598     0.85700
C1814       C  0.59898323  0.76143699  0.05824830    -0.54500
C1815       C  0.62355776  0.76024182  0.08749413     0.08700
C1816       C  0.62277900  0.78891814  0.11835575     0.19600
C1817       C  0.56401459  0.78755616  0.10905197    -0.55200
C1818       C  0.58898350  0.78712353  0.13745602     0.08800
C1819       C  0.59690396  0.81976819  0.06268696    -0.54700
C1820       C  0.62191375  0.81944696  0.09118818     0.09300
H1821       H  0.59657524  0.74441510  0.03258202     0.13900
H1822       H  0.64241348  0.78923673  0.14246367    -0.00400
H1823       H  0.53869495  0.78632250  0.11774816     0.14200
H1824       H  0.59347448  0.83904806  0.04033015     0.14000
C1825       C  0.92697903  0.78781781  0.06144597     0.85700
C1826       C  0.90436538  0.81657419  0.05330090    -0.54500
C1827       C  0.87799104  0.81716393  0.07797049     0.08700
C1828       C  0.87616161  0.78903469  0.10844202     0.19600
C1829       C  0.93535822  0.78951515  0.10852799    -0.55200
C1830       C  0.90855550  0.79008773  0.13346481     0.08800
C1831       C  0.90502800  0.75796556  0.05642995    -0.54700
C1832       C  0.87853360  0.75864787  0.08117594     0.09300
H1833       H  0.90883919  0.83509013  0.03034030     0.13900
H1834       H  0.85409776  0.78987376  0.12777106    -0.00400
H1835       H  0.96009132  0.78883694  0.12069815     0.14200
H1836       H  0.90991833  0.73801642  0.03537429     0.14000
C1837       C  0.75103653  0.96469064  0.06465571     0.85700
C1838       C  0.72115700  0.94233985  0.06213169    -0.54500
C1839       C  0.72313557  0.91648893  0.08827263     0.08700
C1840       C  0.75469985  0.91573274  0.11461254     0.19600
C1841       C  0.75420782  0.97431823  0.11089198    -0.55200
C1842       C  0.75550754  0.94856759  0.13740012     0.08800
C1843       C  0.78002288  0.94252807  0.05651329    -0.54700
C1844       C  0.78215104  0.91723000  0.08285350     0.09300
H1845       H  0.70056674  0.94626975  0.04115752     0.13900
H1846       H  0.75630226  0.89477772  0.13577911    -0.00400
H1847       H  0.75521580  0.49920373  0.12143054     0.14200
H1848       H  0.79739844  0.94635425  0.03195965     0.14000
O1849       O  0.53413919  0.81490795  0.43125854    -0.73700
O1850       O  0.96700852  0.81430870  0.01984190    -0.74700
O1851       O  0.53613656  0.81573206  0.01885151    -0.63300
O1852       O  0.96535656  0.81372286  0.43129216    -0.71700
O1853       O  0.96673921  0.76032510  0.43117764    -0.71300
O1854       O  0.53591284  0.76229368  0.02047982    -0.62500
O1855       O  0.96692410  0.76089171  0.01943439    -0.78800
O1856       O  0.53559644  0.76148175  0.43287986    -0.73800
Cu1857     Cu  0.00061550  0.81652971  0.47533697     1.04600
Cu1858     Cu  0.00134712  0.75938863  0.47599728     1.04300
C1859       C  0.54612437  0.78819667  0.41900528     0.92500
C1860       C  0.95562412  0.78760760  0.03281692     0.91600
C1861       C  0.54765464  0.78928492  0.03280491     0.83800
C1862       C  0.95451085  0.78668054  0.41778189     0.90100
O1863       O  0.77587454  0.50305048  0.43470079    -0.73700
O1864       O  0.77661008  0.57301205  0.02066460    -0.74700
O1865       O  0.77654018  0.50484719  0.02277093    -0.63300
O1866       O  0.77499842  0.57131962  0.43312510    -0.71700
O1867       O  0.72122143  0.57264390  0.43500527    -0.71300
O1868       O  0.72271744  0.50308308  0.02121145    -0.62500
O1869       O  0.72286857  0.57191174  0.02329898    -0.75000
O1870       O  0.72203515  0.50347030  0.43336573    -0.73800
Cu1871     Cu  0.77782883  0.53805685  0.47782782     1.04600
Cu1872     Cu  0.72028065  0.53778420  0.47817602     1.04300
C1873       C  0.74892532  0.99173291  0.42090089     0.92500
C1874       C  0.75013421  0.58390095  0.03520349     0.91600
C1875       C  0.74993364  0.99264434  0.03513149     0.83800
C1876       C  0.74791476  0.58338283  0.42101986     0.90100
C1877       C  0.85953561  0.87044619  0.10266365    -0.27100
C1878       C  0.85424781  0.84355633  0.07683415    -0.15100
C1879       C  0.82697396  0.84241919  0.04980420     0.35500
C1880       C  0.80379353  0.86709493  0.05189858    -0.26500
C1881       C  0.80802532  0.89296462  0.07973499    -0.15700
C1882       C  0.83706699  0.89583859  0.10331488     0.36600
N1883       N  0.84452324  0.92517163  0.12557637    -0.90000
H1884       H  0.88147793  0.87178710  0.12177241     0.17700
H1885       H  0.78242702  0.86628646  0.03171745     0.17700
N1886       N  0.82293241  0.81625352  0.02061566    -0.89000
H1887       H  0.86711296  0.92344128  0.14078487     0.35100
H1888       H  0.82743400  0.92848858  0.14867182     0.40200
H1889       H  0.84182432  0.81752808  0.99938290     0.39800
H1890       H  0.80133618  0.81887821  0.00332691     0.34700
C1891       C  0.66449772  0.90106846  0.09305889    -0.27100
C1892       C  0.69721592  0.89163160  0.09094685    -0.15100
C1893       C  0.70474998  0.85853232  0.09096971     0.35500
C1894       C  0.67980693  0.83572759  0.09148681    -0.26500
C1895       C  0.64723995  0.84491934  0.09320939    -0.15700
C1896       C  0.63943164  0.87800381  0.09480150     0.36600
N1897       N  0.60620496  0.88798557  0.09836970    -0.90000
H1898       H  0.65853970  0.92647570  0.09386667     0.17700
H1899       H  0.68605914  0.81069185  0.08842490     0.17700
N1900       N  0.73761569  0.84770142  0.08869700    -0.89000
H1901       H  0.60459402  0.91310567  0.09932605     0.35100
H1902       H  0.59789375  0.87970028  0.12698105     0.40200
H1903       H  0.73958698  0.83294177  0.06230977     0.39800
H1904       H  0.74266867  0.83361890  0.11493039     0.34700
C1905       C  0.67955797  0.74108832  0.10525850    -0.27100
C1906       C  0.64845448  0.73397163  0.08943308    -0.15100
C1907       C  0.64183203  0.70197705  0.07625628     0.35500
C1908       C  0.66701881  0.67913691  0.07610211    -0.26500
C1909       C  0.69885598  0.68703646  0.08914815    -0.15700
C1910       C  0.70476448  0.71860711  0.10450244     0.36600
N1911       N  0.73628185  0.72885031  0.11859802    -0.90000
H1912       H  0.68514757  0.76452916  0.11785493     0.17700
H1913       H  0.66129876  0.65468894  0.06669490     0.17700
N1914       N  0.60942704  0.69223434  0.06460838    -0.89000
H1915       H  0.74282198  0.74917667  0.10162092     0.35100
H1916       H  0.73468962  0.73588411  0.14987874     0.40200
H1917       H  0.59523415  0.69400636  0.09120959     0.39800
H1918       H  0.60883660  0.66809832  0.05511866     0.34700
C1919       C  0.83907515  0.67834558  0.10429495    -0.27100
C1920       C  0.80812145  0.68284681  0.08656381    -0.15100
C1921       C  0.80104650  0.71128617  0.06447767     0.35500
C1922       C  0.82416047  0.73609144  0.06394839    -0.26500
C1923       C  0.85484161  0.73202291  0.08261061    -0.15700
C1924       C  0.86275457  0.70264878  0.10211796     0.36600
N1925       N  0.89474943  0.69764822  0.11946874    -0.90000
H1926       H  0.84466925  0.65590376  0.11989664     0.17700
H1927       H  0.81851863  0.75831496  0.04809542     0.17700
N1928       N  0.77069909  0.71454461  0.04207135    -0.89000
H1929       H  0.89674768  0.67455234  0.13203950     0.35100
H1930       H  0.89806763  0.71384302  0.14425106     0.40200
H1931       H  0.76991252  0.69688907  0.01869447     0.39800
H1932       H  0.76939615  0.73681954  0.02711236     0.34700
C1933       C  0.73801662  0.97339178  0.24993368    -0.27100
C1934       C  0.75666480  0.95069924  0.27210185    -0.15100
C1935       C  0.77653973  0.92916864  0.24998941     0.35500
C1936       C  0.77545792  0.92903657  0.20635381    -0.26500
C1937       C  0.75649511  0.95119445  0.18382601    -0.15700
C1938       C  0.73757607  0.97381371  0.20597099     0.36600
N1939       N  0.71670005  0.99592448  0.18399420    -0.90000
H1940       H  0.72255632  0.98980640  0.26688569     0.17700
H1941       H  0.78956239  0.91121131  0.19005046     0.17700
N1942       N  0.79806974  0.90762460  0.27188817    -0.89000
H1943       H  0.70464279  0.01098007  0.20487833     0.35100
H1944       H  0.69883966  0.98237440  0.16828918     0.40200
H1945       H  0.81547172  0.92176371  0.28750631     0.39800
H1946       H  0.81069404  0.89300855  0.25106626     0.34700
C1947       C  0.93125103  0.80358794  0.24906999    -0.27100
C1948       C  0.90740985  0.78510438  0.26889413    -0.15100
C1949       C  0.88479294  0.76798200  0.24340349     0.35500
C1950       C  0.88612665  0.77000901  0.19988800    -0.26500
C1951       C  0.90957034  0.78864566  0.18012033    -0.15700
C1952       C  0.93237014  0.80568375  0.20519809     0.36600
N1953       N  0.95584468  0.82620111  0.18652721    -0.90000
H1954       H  0.94857646  0.81740017  0.26765586     0.17700
H1955       H  0.86867426  0.75623358  0.18147192     0.17700
N1956       N  0.86065086  0.74769552  0.26098479    -0.89000
H1957       H  0.97893470  0.81847214  0.19611291     0.35100
H1958       H  0.95247905  0.84957131  0.19801047     0.40200
H1959       H  0.86321956  0.72462897  0.24817546     0.39800
H1960       H  0.83785335  0.75632826  0.25155470     0.34700
C1961       C  0.79312151  0.85632393  0.36908859    -0.27100
C1962       C  0.80274627  0.88863005  0.37302355    -0.15100
C1963       C  0.83614882  0.89606498  0.37621465     0.35500
C1964       C  0.85908868  0.87104315  0.37494116    -0.26500
C1965       C  0.84952393  0.83866451  0.37090763    -0.15700
C1966       C  0.81608359  0.83133558  0.36869973     0.36600
N1967       N  0.80516095  0.79860814  0.36772045    -0.90000
H1968       H  0.76752705  0.85035222  0.36721266     0.17700
H1969       H  0.88468681  0.87694703  0.37641912     0.17700
N1970       N  0.84675300  0.92896822  0.37999677    -0.89000
H1971       H  0.79074994  0.79522342  0.34086840     0.35100
H1972       H  0.79057132  0.79493308  0.39359268     0.40200
H1973       H  0.84000378  0.94085275  0.35256650     0.39800
H1974       H  0.87205852  0.93023133  0.38236193     0.34700
C1975       C  0.59880844  0.76184261  0.24959118    -0.27100
C1976       C  0.58325138  0.78723090  0.27018403    -0.15100
C1977       C  0.56725182  0.81133692  0.24673119     0.35500
C1978       C  0.56758772  0.80978356  0.20317138    -0.26500
C1979       C  0.58440695  0.78513561  0.18274533    -0.15700
C1980       C  0.59958477  0.76055175  0.20598438     0.36600
N1981       N  0.61620454  0.73476829  0.18517258    -0.90000
H1982       H  0.61106626  0.74337618  0.26769487     0.17700
H1983       H  0.55627513  0.82889211  0.18521241     0.17700
N1984       N  0.55253138  0.83870343  0.26615629    -0.89000
H1985       H  0.62642744  0.71883350  0.20682711     0.35100
H1986       H  0.59889674  0.72170662  0.16782568     0.40200
H1987       H  0.56997522  0.85016954  0.28515215     0.39800
H1988       H  0.53366666  0.83077938  0.28477343     0.34700
C1989       C  0.68547404  0.87773732  0.40220511    -0.27100
C1990       C  0.69304443  0.89232250  0.36424831    -0.15100
C1991       C  0.67700739  0.88182646  0.32704168     0.35500
C1992       C  0.65454163  0.85653035  0.32890921    -0.26500
C1993       C  0.64669994  0.84241340  0.36699471    -0.15700
C1994       C  0.66246150  0.85302835  0.40391718     0.36600
N1995       N  0.65587415  0.83815459  0.44304461    -0.90000
H1996       H  0.69792633  0.88523870  0.43073597     0.17700
H1997       H  0.64220298  0.84863894  0.30047548     0.17700
N1998       N  0.68200025  0.89663235  0.28723802    -0.89000
H1999       H  0.64792026  0.85599593  0.46363159     0.35100
H2000       H  0.67761480  0.82875110  0.45508671     0.40200
H2001       H  0.69659480  0.91701114  0.29006094     0.39800
H2002       H  0.65951118  0.90510243  0.27638542     0.34700
C2003       C  0.72464015  0.64076599  0.24988065    -0.27100
C2004       C  0.74787100  0.62295961  0.27233143    -0.15100
C2005       C  0.77070579  0.60416710  0.25079156     0.35500
C2006       C  0.77041144  0.60436097  0.20690347    -0.26500
C2007       C  0.74794298  0.62320614  0.18455749    -0.15700
C2008       C  0.72414274  0.64073429  0.20616021     0.36600
N2009       N  0.69954950  0.65835252  0.18357692    -0.90000
H2010       H  0.70686155  0.65482314  0.26661042     0.17700
H2011       H  0.78860794  0.59093481  0.19011411     0.17700
N2012       N  0.79481868  0.58605287  0.27351832    -0.89000
H2013       H  0.68395527  0.67005718  0.20409853     0.35100
H2014       H  0.68543290  0.64162684  0.16679029     0.40200
H2015       H  0.80966466  0.60247618  0.28975221     0.39800
H2016       H  0.80976519  0.57353039  0.25300036     0.34700
C2017       C  0.66148055  0.67636667  0.36821538    -0.27100
C2018       C  0.69427525  0.68523270  0.36556354    -0.15100
C2019       C  0.70210982  0.71807045  0.36002637     0.35500
C2020       C  0.67744042  0.74119411  0.35892820    -0.26500
C2021       C  0.64489475  0.73243565  0.36290328    -0.15700
C2022       C  0.63665753  0.69955110  0.36612309     0.36600
N2023       N  0.60319475  0.68978059  0.36627476    -0.90000
H2024       H  0.65514341  0.65116010  0.37094719     0.17700
H2025       H  0.68402743  0.76635885  0.35629679     0.17700
N2026       N  0.73504135  0.72850889  0.35669313    -0.89000
H2027       H  0.60131385  0.66475350  0.36867725     0.35100
H2028       H  0.59285580  0.69597465  0.33740206     0.40200
H2029       H  0.73932053  0.74631071  0.37930050     0.39800
H2030       H  0.73748832  0.73937899  0.32760091     0.34700
C2031       C  0.82930604  0.67953809  0.34332081    -0.27100
C2032       C  0.80429936  0.68232867  0.37204682    -0.15100
C2033       C  0.80529459  0.70715904  0.40253813     0.35500
C2034       C  0.83005468  0.73010908  0.40115597    -0.26500
C2035       C  0.85410561  0.72823414  0.37101585    -0.15700
C2036       C  0.85505462  0.70146554  0.34361906     0.36600
N2037       N  0.88186084  0.69535308  0.31659652    -0.90000
H2038       H  0.82928756  0.65960665  0.32128576     0.17700
H2039       H  0.83042858  0.74973562  0.42365578     0.17700
N2040       N  0.78227846  0.70948660  0.43563454    -0.89000
H2041       H  0.89217252  0.67335088  0.32535509     0.35100
H2042       H  0.90013207  0.71255614  0.32054429     0.40200
H2043       H  0.76366133  0.69261471  0.43225962     0.39800
H2044       H  0.77140566  0.73218836  0.43442434     0.34700
C2045       C  0.74788212  0.61114947  0.89114093     0.85700
C2046       C  0.71868471  0.63423961  0.89458022    -0.54500
C2047       C  0.71966679  0.65974917  0.86766131     0.08700
C2048       C  0.74958786  0.65934193  0.83983039     0.19600
C2049       C  0.74822074  0.60084903  0.84510184    -0.55200
C2050       C  0.74891500  0.62622760  0.81826642     0.08800
C2051       C  0.77767644  0.63294556  0.89738676    -0.54700
C2052       C  0.77843883  0.65805157  0.87054378     0.09300
H2053       H  0.69941971  0.63106017  0.91681888     0.13900
H2054       H  0.75086561  0.67941848  0.81730651    -0.00400
H2055       H  0.74729861  0.57590675  0.83471002     0.14200
H2056       H  0.79636210  0.62923597  0.92121929     0.14000
C2057       C  0.57342122  0.78824166  0.88885119     0.85700
C2058       C  0.59663325  0.81689780  0.89471665    -0.54500
C2059       C  0.62166090  0.81689759  0.86749436     0.08700
C2060       C  0.62100933  0.78829460  0.83687745     0.19600
C2061       C  0.56219550  0.78933605  0.84303128    -0.55200
C2062       C  0.58728820  0.78938113  0.81584686     0.08800
C2063       C  0.59537056  0.75842986  0.89210761    -0.54700
C2064       C  0.62015670  0.75825878  0.86451602     0.09300
H2065       H  0.59332851  0.83571914  0.91794369     0.13900
H2066       H  0.64119448  0.78837594  0.81439950    -0.00400
H2067       H  0.53686789  0.78866903  0.83313192     0.14200
H2068       H  0.59212879  0.73960469  0.91497910     0.14000
C2069       C  0.92545896  0.78573261  0.88843550     0.85700
C2070       C  0.90447902  0.75569206  0.89449452    -0.54500
C2071       C  0.87778978  0.75456900  0.86913778     0.08700
C2072       C  0.87397792  0.78370161  0.84017303     0.19600
C2073       C  0.93306987  0.78601809  0.84155326    -0.55200
C2074       C  0.90600130  0.78484041  0.81576860     0.08800
C2075       C  0.90209426  0.81408808  0.89479610    -0.54700
C2076       C  0.87500741  0.81316500  0.86964939     0.09300
H2077       H  0.90990421  0.73702285  0.91714703     0.13900
H2078       H  0.85178872  0.78319863  0.82029769    -0.00400
H2079       H  0.95765916  0.78666893  0.83002757     0.14200
H2080       H  0.90631962  0.83299522  0.91784250     0.14000
C2081       C  0.74910962  0.96368255  0.89080798     0.85700
C2082       C  0.77701393  0.93974932  0.89927116    -0.54500
C2083       C  0.77752895  0.91423787  0.87212952     0.08700
C2084       C  0.74976115  0.91483245  0.83954040     0.19600
C2085       C  0.75256231  0.97337330  0.84494356    -0.55200
C2086       C  0.75319978  0.94769427  0.81797026     0.08800
C2087       C  0.71834030  0.94291100  0.89183701    -0.54700
C2088       C  0.71862774  0.91736886  0.86489851     0.09300
H2089       H  0.79462111  0.94263880  0.92463833     0.13900
H2090       H  0.74962264  0.89383246  0.81791349    -0.00400
H2091       H  0.75475245  0.49818563  0.83487932     0.14200
H2092       H  0.69845153  0.94734515  0.91287455     0.14000
C2093       C  0.75138466  0.61157665  0.56577232     0.85700
C2094       C  0.78234294  0.63195146  0.56269652    -0.54500
C2095       C  0.78353835  0.65721622  0.58981275     0.08700
C2096       C  0.75394299  0.65963565  0.61812505     0.19600
C2097       C  0.74993580  0.60126589  0.61153513    -0.55200
C2098       C  0.75097972  0.62656966  0.63888957     0.08800
C2099       C  0.72361470  0.63607224  0.56001297    -0.54700
C2100       C  0.72456371  0.66145834  0.58778718     0.09300
H2101       H  0.80078703  0.62806006  0.53942887     0.13900
H2102       H  0.75610831  0.67897002  0.64180123    -0.00400
H2103       H  0.74752040  0.57640886  0.62134708     0.14200
H2104       H  0.70513854  0.63346332  0.53567330     0.14000
C2105       C  0.57529561  0.78967180  0.56392527     0.85700
C2106       C  0.59898292  0.76143650  0.55824715    -0.54500
C2107       C  0.62355778  0.76024154  0.58749255     0.08700
C2108       C  0.62277911  0.78891781  0.61835421     0.19600
C2109       C  0.56401464  0.78755538  0.60905143    -0.55200
C2110       C  0.58898380  0.78712287  0.63745512     0.08800
C2111       C  0.59690332  0.81976756  0.56268573    -0.54700
C2112       C  0.62191351  0.81944647  0.59118636     0.09300
H2113       H  0.59657488  0.74441480  0.53258067     0.13900
H2114       H  0.64241382  0.78923670  0.64246179    -0.00400
H2115       H  0.53869510  0.78632158  0.61774803     0.14200
H2116       H  0.59347362  0.83904725  0.54032872     0.14000
C2117       C  0.92697836  0.78781808  0.56144533     0.85700
C2118       C  0.90436565  0.81657536  0.55330150    -0.54500
C2119       C  0.87799147  0.81716536  0.57797136     0.08700
C2120       C  0.87616124  0.78903552  0.60844198     0.19600
C2121       C  0.93535785  0.78951406  0.60852738    -0.55200
C2122       C  0.90855533  0.79008701  0.63346458     0.08800
C2123       C  0.90502631  0.75796674  0.55642827    -0.54700
C2124       C  0.87853205  0.75864931  0.58117447     0.09300
H2125       H  0.90883966  0.83509146  0.53034115     0.13900
H2126       H  0.85409753  0.78987476  0.62777130    -0.00400
H2127       H  0.96009100  0.78883485  0.62069722     0.14200
H2128       H  0.90991602  0.73801782  0.53537199     0.14000
C2129       C  0.75103586  0.96469061  0.56465533     0.85700
C2130       C  0.72115684  0.94233937  0.56213006    -0.54500
C2131       C  0.72313526  0.91648846  0.58827091     0.08700
C2132       C  0.75469899  0.91573264  0.61461196     0.19600
C2133       C  0.75420600  0.97431814  0.61089179    -0.55200
C2134       C  0.75550561  0.94856745  0.63739992     0.08800
C2135       C  0.78002277  0.94252864  0.55651379    -0.54700
C2136       C  0.78215086  0.91723054  0.58285385     0.09300
H2137       H  0.70056695  0.94626902  0.54115519     0.13900
H2138       H  0.75630120  0.89477737  0.63577814    -0.00400
H2139       H  0.75521354  0.49920341  0.62143065     0.14200
H2140       H  0.79739870  0.94635509  0.53196064     0.14000
O2141       O  0.53413906  0.81490941  0.93125892    -0.73700
O2142       O  0.96700796  0.81430819  0.51984068    -0.74700
O2143       O  0.53613605  0.81573109  0.51885086    -0.63300
O2144       O  0.96535634  0.81372404  0.93129315    -0.71700
O2145       O  0.96673953  0.76032629  0.93117790    -0.71300
O2146       O  0.53591196  0.76229272  0.52048003    -0.62500
O2147       O  0.96692318  0.76089121  0.51943408    -0.78800
O2148       O  0.53559658  0.76148320  0.93287953    -0.73800
Cu2149     Cu  0.00061571  0.81653083  0.97533775     1.04600
Cu2150     Cu  0.00134771  0.75938972  0.97599728     1.04300
C2151       C  0.54612422  0.78819826  0.91900509     0.92500
C2152       C  0.95562333  0.78760732  0.53281610     0.91600
C2153       C  0.54765394  0.78928401  0.53280464     0.83800
C2154       C  0.95451086  0.78668171  0.91778251     0.90100
O2155       O  0.77587512  0.50305120  0.93470155    -0.73700
O2156       O  0.77660978  0.57301089  0.52066468    -0.74700
O2157       O  0.77653953  0.50484624  0.52277001    -0.63300
O2158       O  0.77499782  0.57132049  0.93312463    -0.71700
O2159       O  0.72122093  0.57264524  0.93500670    -0.71300
O2160       O  0.72271677  0.50308300  0.52121130    -0.62500
O2161       O  0.72286820  0.57191174  0.52329750    -0.75000
O2162       O  0.72203571  0.50347151  0.93336605    -0.73800
Cu2163     Cu  0.77782911  0.53805781  0.97782811     1.04600
Cu2164     Cu  0.72028093  0.53778485  0.97817689     1.04300
C2165       C  0.74892585  0.99173397  0.92090149     0.92500
C2166       C  0.75013389  0.58390043  0.53520277     0.91600
C2167       C  0.74993299  0.99264405  0.53513095     0.83800
C2168       C  0.74791399  0.58338397  0.92102022     0.90100
C2169       C  0.85953481  0.87044652  0.60266660    -0.27100
C2170       C  0.85424837  0.84355776  0.57683478    -0.15100
C2171       C  0.82697610  0.84242178  0.54980209     0.35500
C2172       C  0.80379524  0.86709713  0.55189663    -0.26500
C2173       C  0.80802550  0.89296555  0.57973543    -0.15700
C2174       C  0.83706619  0.89583889  0.60331740     0.36600
N2175       N  0.84452186  0.92517151  0.62558021    -0.90000
H2176       H  0.88147619  0.87178673  0.62177722     0.17700
H2177       H  0.78242960  0.86628933  0.53171391     0.17700
N2178       N  0.82293653  0.81625759  0.52061083    -0.89000
H2179       H  0.86711080  0.92344070  0.64079029     0.35100
H2180       H  0.82743170  0.92848817  0.64867466     0.40200
H2181       H  0.84182945  0.81753388  0.49937970     0.39800
H2182       H  0.80134108  0.81888285  0.50332058     0.34700
C2183       C  0.66449762  0.90106782  0.59305679    -0.27100
C2184       C  0.69721577  0.89163102  0.59094420    -0.15100
C2185       C  0.70474996  0.85853181  0.59096558     0.35500
C2186       C  0.67980693  0.83572695  0.59148227    -0.26500
C2187       C  0.64723991  0.84491870  0.59320632    -0.15700
C2188       C  0.63943160  0.87800314  0.59479920     0.36600
N2189       N  0.60620498  0.88798488  0.59836828    -0.90000
H2190       H  0.65853960  0.92647504  0.59386540     0.17700
H2191       H  0.68605908  0.81069122  0.58841945     0.17700
N2192       N  0.73761579  0.84770131  0.58869225    -0.89000
H2193       H  0.60459404  0.91310495  0.59932516     0.35100
H2194       H  0.59789414  0.87969929  0.62697968     0.40200
H2195       H  0.73958729  0.83294250  0.56230423     0.39800
H2196       H  0.74266897  0.83361813  0.61492495     0.34700
C2197       C  0.67955822  0.74108863  0.60525672    -0.27100
C2198       C  0.64845484  0.73397174  0.58943097    -0.15100
C2199       C  0.64183274  0.70197728  0.57625348     0.35500
C2200       C  0.66701963  0.67913740  0.57609938    -0.26500
C2201       C  0.69885662  0.68703699  0.58914597    -0.15700
C2202       C  0.70476486  0.71860755  0.60450087     0.36600
N2203       N  0.73628195  0.72885069  0.61859758    -0.90000
H2204       H  0.68514763  0.76452946  0.61785340     0.17700
H2205       H  0.66129969  0.65468947  0.56669196     0.17700
N2206       N  0.60942798  0.69223434  0.56460478    -0.89000
H2207       H  0.74282248  0.74917714  0.60162085     0.35100
H2208       H  0.73468913  0.73588417  0.64987832     0.40200
H2209       H  0.59523489  0.69400535  0.59120589     0.39800
H2210       H  0.60883794  0.66809860  0.55511371     0.34700
C2211       C  0.83907526  0.67834599  0.60429082    -0.27100
C2212       C  0.80812138  0.68284686  0.58656029    -0.15100
C2213       C  0.80104552  0.71128655  0.56447515     0.35500
C2214       C  0.82415875  0.73609263  0.56394689    -0.26500
C2215       C  0.85484006  0.73202438  0.58260894    -0.15700
C2216       C  0.86275392  0.70264988  0.60211470     0.36600
N2217       N  0.89474899  0.69764969  0.61946498    -0.90000
H2218       H  0.84467002  0.65590398  0.61989168     0.17700
H2219       H  0.81851628  0.75831653  0.54809490     0.17700
N2220       N  0.77069797  0.71454446  0.54206897    -0.89000
H2221       H  0.89674812  0.67455338  0.63203408     0.35100
H2222       H  0.89806666  0.71384362  0.64424841     0.40200
H2223       H  0.76991182  0.69688923  0.51869172     0.39800
H2224       H  0.76939447  0.73681957  0.52711039     0.34700
C2225       C  0.73801653  0.97339304  0.74993396    -0.27100
C2226       C  0.75666466  0.95070043  0.77210207    -0.15100
C2227       C  0.77653865  0.92916916  0.74998940     0.35500
C2228       C  0.77545565  0.92903620  0.70635382    -0.26500
C2229       C  0.75649314  0.95119431  0.68382599    -0.15700
C2230       C  0.73757519  0.97381442  0.70597120     0.36600
N2231       N  0.71669946  0.99592565  0.68399472    -0.90000
H2232       H  0.72255691  0.98980818  0.76688616     0.17700
H2233       H  0.78955928  0.91121025  0.69005055     0.17700
N2234       N  0.79806909  0.90762546  0.77188799    -0.89000
H2235       H  0.70464314  0.01098182  0.70487894     0.35100
H2236       H  0.69883821  0.98237594  0.66829066     0.40200
H2237       H  0.81547167  0.92176478  0.78750450     0.39800
H2238       H  0.81069242  0.89300859  0.75106594     0.34700
C2239       C  0.93125160  0.80358640  0.74906994    -0.27100
C2240       C  0.90741021  0.78510324  0.76889427    -0.15100
C2241       C  0.88479328  0.76798083  0.74340368     0.35500
C2242       C  0.88612668  0.77000808  0.69988807    -0.26500
C2243       C  0.90957051  0.78864448  0.68012022    -0.15700
C2244       C  0.93237080  0.80568200  0.70519799     0.36600
N2245       N  0.95584604  0.82619855  0.68652707    -0.90000
H2246       H  0.94857720  0.81739849  0.76765570     0.17700
H2247       H  0.86867398  0.75623300  0.68147202     0.17700
N2248       N  0.86065156  0.74769402  0.76098516    -0.89000
H2249       H  0.97893582  0.81846884  0.69611281     0.35100
H2250       H  0.95248116  0.84956890  0.69801020     0.40200
H2251       H  0.86322061  0.72462749  0.74817586     0.39800
H2252       H  0.83785388  0.75632637  0.75155519     0.34700
C2253       C  0.79312076  0.85632413  0.86908776    -0.27100
C2254       C  0.80274529  0.88863034  0.87302277    -0.15100
C2255       C  0.83614785  0.89606549  0.87621270     0.35500
C2256       C  0.85908793  0.87104380  0.87493952    -0.26500
C2257       C  0.84952348  0.83866504  0.87090653    -0.15700
C2258       C  0.81608311  0.83133590  0.86869859     0.36600
N2259       N  0.80516070  0.79860840  0.86771890    -0.90000
H2260       H  0.76752633  0.85035224  0.86721201     0.17700
H2261       H  0.88468603  0.87694789  0.87641709     0.17700
N2262       N  0.84675185  0.92896889  0.87999320    -0.89000
H2263       H  0.79075002  0.79522369  0.84086651     0.35100
H2264       H  0.79057082  0.79493310  0.89359079     0.40200
H2265       H  0.84000194  0.94085279  0.85256273     0.39800
H2266       H  0.87205739  0.93023222  0.88235735     0.34700
C2267       C  0.59881113  0.76184419  0.74959111    -0.27100
C2268       C  0.58325179  0.78723140  0.77018346    -0.15100
C2269       C  0.56724945  0.81133524  0.74672985     0.35500
C2270       C  0.56758555  0.80978129  0.70317008    -0.26500
C2271       C  0.58440744  0.78513491  0.68274458    -0.15700
C2272       C  0.59958723  0.76055254  0.70598425     0.36600
N2273       N  0.61620831  0.73476964  0.68517303    -0.90000
H2274       H  0.61107064  0.74337909  0.76769521     0.17700
H2275       H  0.55627076  0.82888834  0.68521066     0.17700
N2276       N  0.55252575  0.83870038  0.76615398    -0.89000
H2277       H  0.62643215  0.71883570  0.70682795     0.35100
H2278       H  0.59890116  0.72170678  0.66782657     0.40200
H2279       H  0.56996804  0.85016861  0.78515004     0.39800
H2280       H  0.53366153  0.83077460  0.78477066     0.34700
C2281       C  0.68547205  0.87774105  0.90220530    -0.27100
C2282       C  0.69304272  0.89232584  0.86424838    -0.15100
C2283       C  0.67700547  0.88183011  0.82704185     0.35500
C2284       C  0.65453984  0.85653391  0.82890933    -0.26500
C2285       C  0.64669859  0.84241659  0.86699476    -0.15700
C2286       C  0.66245972  0.85303196  0.90391737     0.36600
N2287       N  0.65587227  0.83815846  0.94304494    -0.90000
H2288       H  0.69792420  0.88524259  0.93073619     0.17700
H2289       H  0.64220114  0.84864253  0.80047562     0.17700
N2290       N  0.68199819  0.89663634  0.78723836    -0.89000
H2291       H  0.64791782  0.85599986  0.96363152     0.35100
H2292       H  0.67761295  0.82875546  0.95508752     0.40200
H2293       H  0.69659303  0.91701491  0.79006140     0.39800
H2294       H  0.65950912  0.90510679  0.77638624     0.34700
C2295       C  0.72464224  0.64077007  0.74988033    -0.27100
C2296       C  0.74787158  0.62296172  0.77233121    -0.15100
C2297       C  0.77070472  0.60416738  0.75079106     0.35500
C2298       C  0.77041013  0.60436105  0.70690289    -0.26500
C2299       C  0.74794319  0.62320795  0.68455680    -0.15700
C2300       C  0.72414470  0.64073836  0.70615980     0.36600
N2301       N  0.69955293  0.65835881  0.68357682    -0.90000
H2302       H  0.70686478  0.65482869  0.76661004     0.17700
H2303       H  0.78860541  0.59093325  0.69011350     0.17700
N2304       N  0.79481641  0.58605144  0.77351755    -0.89000
H2305       H  0.68396001  0.67006508  0.70409853     0.35100
H2306       H  0.68543456  0.64163438  0.66679046     0.40200
H2307       H  0.80966376  0.60247376  0.78975114     0.39800
H2308       H  0.80976179  0.57352777  0.75299948     0.34700
C2309       C  0.66147883  0.67636816  0.86821229    -0.27100
C2310       C  0.69427379  0.68523371  0.86556237    -0.15100
C2311       C  0.70210910  0.71807153  0.86002694     0.35500
C2312       C  0.67744024  0.74119570  0.85892934    -0.26500
C2313       C  0.64489439  0.73243770  0.86290280    -0.15700
C2314       C  0.63665632  0.69955319  0.86612007     0.36600
N2315       N  0.60319326  0.68978344  0.86626925    -0.90000
H2316       H  0.65514111  0.65116161  0.87094252     0.17700
H2317       H  0.68402771  0.76636043  0.85629943     0.17700
N2318       N  0.73504082  0.72850949  0.85669453    -0.89000
H2319       H  0.60131171  0.66475626  0.86866971     0.35100
H2320       H  0.59285539  0.69597895  0.83739649     0.40200
H2321       H  0.73932014  0.74631080  0.87930253     0.39800
H2322       H  0.73748818  0.73938014  0.82760273     0.34700
C2323       C  0.82930432  0.67953978  0.84332305    -0.27100
C2324       C  0.80429768  0.68233092  0.87204899    -0.15100
C2325       C  0.80529346  0.70716132  0.90254031     0.35500
C2326       C  0.83005423  0.73011071  0.90115826    -0.26500
C2327       C  0.85410525  0.72823508  0.87101826    -0.15700
C2328       C  0.85505358  0.70146642  0.84362157     0.36600
N2329       N  0.88185986  0.69535298  0.81659951    -0.90000
H2330       H  0.82928539  0.65960832  0.82128802     0.17700
H2331       H  0.83042848  0.74973741  0.92365784     0.17700
N2332       N  0.78227720  0.70948952  0.93563650    -0.89000
H2333       H  0.89217039  0.67335020  0.82535790     0.35100
H2334       H  0.90013187  0.71255514  0.82054804     0.40200
H2335       H  0.76365931  0.69261856  0.93226079     0.39800
H2336       H  0.77140542  0.73219181  0.93442668     0.34700
loop_ 
_geom_bond_atom_site_label_1 
_geom_bond_atom_site_label_2 
_geom_bond_distance 
_geom_bond_site_symmetry_2 
_ccdc_geom_bond_type 
C1            C2   1.544       .  S
C1            C7   1.535       .  S
C1            C5   1.534       .  S
C1          C124   1.504       .  S
C2            H9   1.086       .  S
C2            C3   1.372       .  D
C3            C4   1.536       .  S
C3          C266   1.489       .  S
C4            C8   1.531       .  S
C4            C6   1.535       .  S
C4           H10   1.109       .  S
C5           H11   1.086       .  S
C5            C6   1.366       .  D
C6          C252   1.478       .  S
C7           H12   1.087       .  S
C7            C8   1.357       .  D
C8          C280   1.467       .  S
C13          C14   1.535       .  S
C13          C19   1.536       .  S
C13          C17   1.533       .  S
C13         C107   1.497       .  S
C14          H21   1.086       .  S
C14          C15   1.364       .  D
C15          C16   1.535       .  S
C15         C241   1.479       .  S
C16          C20   1.536       .  S
C16          C18   1.534       .  S
C16          H22   1.111       .  S
C17          H23   1.086       .  S
C17          C18   1.365       .  D
C18         C224   1.473       .  S
C19          H24   1.086       .  S
C19          C20   1.364       .  D
C20         C269   1.481       .  S
C25          C26   1.533       .  S
C25          C31   1.536       .  S
C25          C29   1.542       .  S
C25         C110   1.509       .  S
C26          H33   1.087       .  S
C26          C27   1.356       .  D
C27          C28   1.537       .  S
C27         C283   1.468       .  S
C28          C32   1.541       .  S
C28          C30   1.548       .  S
C28          H34   1.105       .  S
C29          H35   1.086       .  S
C29          C30   1.377       .  D
C30         C196   1.505       .  S
C31          H36   1.086       .  S
C31          C32   1.365       .  D
C32         C213   1.492       .  S
C37          C38   1.541       .  S
C37          C43   1.535       .  S
C37          C41   1.537       .  S
C37         C121   1.507       .  S
C38          H45   1.086       .  S
C38          C39   1.367       .  D
C39          C40   1.536       .  S
C39         C210   1.487       .  S
C40          C44   1.535       .  S
C40          C42   1.542       .  S
C40          H46   1.110       .  S
C41         H631   1.086       .  S
C41          C42   1.369       .  D
C42         C182   1.487       .  S
C43          H48   1.086       .  S
C43          C44   1.363       .  D
C44         C238   1.481       .  S
H47         C625   1.086       .  S
C49          C50   1.536       .  S
C49          C55   1.541       .  S
C49          C53   1.534       .  S
C49         C122   1.505       .  S
C50          H57   1.086       .  S
C50          C51   1.358       .  D
C51          C52   1.537       .  S
C51         C168   1.475       .  S
C52          C56   1.541       .  S
C52          C54   1.536       .  S
C52          H58   1.103       .  S
C53          H59   1.086       .  S
C53          C54   1.364       .  D
C54         C255   1.480       .  S
C55          H60   1.085       .  S
C55          C56   1.375       .  D
C56         C157   1.501       .  S
C61          C62   1.538       .  S
C61          C67   1.536       .  S
C61          C65   1.531       .  S
C61         C109   1.500       .  S
C62          H69   1.084       .  S
C62          C63   1.369       .  D
C63          C64   1.544       .  S
C63         C154   1.498       .  S
C64          C68   1.543       .  S
C64          C66   1.534       .  S
C64          H70   1.109       .  S
C65          H71   1.087       .  S
C65          C66   1.362       .  D
C66         C227   1.471       .  S
C67          H72   1.086       .  S
C67          C68   1.365       .  D
C68         C143   1.486       .  S
C73          C74   1.536       .  S
C73          C79   1.540       .  S
C73          C77   1.544       .  S
C73         C108   1.509       .  S
C74          H81   1.087       .  S
C74          C75   1.356       .  D
C75          C76   1.531       .  S
C75         C126   1.469       .  S
C76          C80   1.534       .  S
C76          C78   1.545       .  S
C76          H82   1.110       .  S
C77          H83   1.085       .  S
C77          C78   1.376       .  D
C78         C199   1.498       .  S
C79          H84   1.086       .  S
C79          C80   1.362       .  D
C80         C171   1.477       .  S
C85          C86   1.543       .  S
C85          C91   1.533       .  S
C85          C89   1.536       .  S
C85         C123   1.503       .  S
C86          H93   1.086       .  S
C86          C87   1.368       .  D
C87          C88   1.538       .  S
C87         C140   1.489       .  S
C88          C92   1.538       .  S
C88          C90   1.542       .  S
C88          H94   1.109       .  S
C89         H679   1.085       .  S
C89          C90   1.371       .  D
C90         C185   1.492       .  S
C91          H96   1.087       .  S
C91          C92   1.354       .  D
C92         C129   1.471       .  S
H95         C673   1.085       .  S
O97         C107   1.277       .  A
O97       Cu1273   1.996       .  S
O98         C108   1.279       .  A
O98        Cu397   2.010   1_554  S
O99         C109   1.277       .  A
O99       Cu1565   2.004   1_554  S
O100        C110   1.278       .  A
O100       Cu105   2.010       .  S
O101        C110   1.279       .  A
O101       Cu106   2.006       .  S
O102        C109   1.278       .  A
O102      Cu1566   2.000   1_554  S
O103        C108   1.278       .  A
O103       Cu398   2.007   1_554  S
O104        C107   1.277       .  A
O104      Cu1274   1.997       .  S
Cu105      O1265   1.996       .  S
Cu105       O390   2.010       .  S
Cu105      O1559   2.004       .  S
Cu105      Cu106   2.373       .  S
Cu106      O1562   2.000       .  S
Cu106       O395   2.007       .  S
Cu106      O1272   1.997       .  S
O111        C705   1.276   1_545  A
O111       Cu119   2.000       .  S
O112        C122   1.276       .  A
O112       Cu411   1.992   1_554  S
O113        C707   1.279   1_545  A
O113       Cu411   2.003   1_554  S
O114        C124   1.278       .  A
O114       Cu119   2.000       .  S
O115        C124   1.277       .  A
O115       Cu120   2.011       .  S
O116        C707   1.276   1_545  A
O116       Cu412   2.004   1_554  S
O117        C122   1.280       .  A
O117       Cu412   2.019   1_554  S
O118        C705   1.280   1_545  A
O118       Cu120   2.019       .  S
Cu119       O404   1.992       .  S
Cu119       O405   2.003       .  S
Cu119      Cu120   2.372       .  S
Cu120       O408   2.004       .  S
Cu120       O409   2.019       .  S
C121        O695   1.276       .  A
C121        O702   1.280       .  A
C123        O697   1.279       .  A
C123        O700   1.276       .  A
C125        C126   1.400       .  A
C125        C130   1.404       .  A
C125        H132   1.084       .  S
C126        C127   1.407       .  A
C127        C128   1.403       .  A
C127        N134   1.437       .  S
C128        C129   1.400       .  A
C128        H133   1.083       .  S
C129        C130   1.408       .  A
C130        N131   1.438       .  S
N131        H135   1.046       .  S
N131        H136   1.040       .  S
N134        H137   1.046   1_554  S
N134        H138   1.046       .  S
C139        C140   1.407       .  A
C139        C144   1.411       .  A
C139        H146   1.083       .  S
C140        C141   1.409       .  A
C141        C142   1.398       .  A
C141        N148   1.430       .  S
C142        C143   1.397       .  A
C142        H147   1.075       .  S
C143        C144   1.412       .  A
C144        N145   1.437       .  S
N145        H149   1.045       .  S
N145        H150   1.046       .  S
N148        H151   1.046       .  S
N148        H152   1.046       .  S
C153        C154   1.401       .  A
C153        C158   1.397       .  A
C153        H160   1.074       .  S
C154        C155   1.416       .  A
C155        C156   1.406       .  A
C155        N162   1.437       .  S
C156        C157   1.408       .  A
C156        H161   1.082       .  S
C157        C158   1.416       .  A
C158        N159   1.431       .  S
N159        H163   1.046       .  S
N159        H164   1.046       .  S
N162        H165   1.046       .  S
N162        H166   1.045       .  S
C167        C168   1.400       .  A
C167        C172   1.407       .  A
C167        H174   1.084       .  S
C168        C169   1.409       .  A
C169        C170   1.403       .  A
C169        N176   1.438       .  S
C170        C171   1.400       .  A
C170        H175   1.080       .  S
C171        C172   1.410       .  A
C172        N173   1.437       .  S
N173        H177   1.046       .  S
N173        H178   1.044       .  S
N176        H179   1.045       .  S
N176        H180   1.046       .  S
C181        C182   1.405       .  A
C181        C186   1.410       .  A
C181        H188   1.083       .  S
C182        C183   1.409       .  A
C183        C184   1.399       .  A
C183        N190   1.438       .  S
C184        C185   1.403       .  A
C184        H189   1.079       .  S
C185        C186   1.416       .  A
C186        N187   1.438       .  S
N187        H191   1.045       .  S
N187        H192   1.046       .  S
N190        H193   1.045       .  S
N190        H194   1.045       .  S
C195        C196   1.410       .  A
C195        C200   1.412       .  A
C195        H202   1.083       .  S
C196        C197   1.416       .  A
C197        C198   1.401       .  A
C197        N204   1.430       .  S
C198        C199   1.402       .  A
C198        H203   1.083       .  S
C199        C200   1.412       .  A
C200        N201   1.432       .  S
N201        H205   1.046       .  S
N201        H206   1.046       .  S
N204        H207   1.046       .  S
N204        H208   1.046       .  S
C209        C210   1.403       .  A
C209        C214   1.405       .  A
C209        H216   1.084       .  S
C210        C211   1.413       .  A
C211        C212   1.406       .  A
C211        N218   1.438       .  S
C212        C213   1.405       .  A
C212        H217   1.083       .  S
C213        C214   1.412       .  A
C214        N215   1.431       .  S
N215        H219   1.045       .  S
N215        H220   1.046       .  S
N218        H221   1.045       .  S
N218        H222   1.046       .  S
C223        C224   1.402       .  A
C223        C228   1.400       .  A
C223        H230   1.084       .  S
C224        C225   1.412       .  A
C225        C226   1.398       .  A
C225        N232   1.432       .  S
C226        C227   1.402       .  A
C226        H231   1.084       .  S
C227        C228   1.408       .  A
C228        N229   1.438       .  S
N229        H233   1.046       .  S
N229        H234   1.046       .  S
N232        H235   1.046       .  S
N232        H236   1.044       .  S
C237        C238   1.404       .  A
C237        C242   1.399       .  A
C237        H244   1.084       .  S
C238        C239   1.419       .  A
C239        C240   1.403       .  A
C239        N246   1.439       .  S
C240        C241   1.402       .  A
C240        H245   1.084       .  S
C241        C242   1.408       .  A
C242        N243   1.433       .  S
N243        H247   1.046       .  S
N243        H248   1.046       .  S
N246        H249   1.041       .  S
N246        H250   1.046       .  S
C251        C252   1.401       .  A
C251        C256   1.402       .  A
C251        H258   1.084       .  S
C252        C253   1.410       .  A
C253        C254   1.407       .  A
C253        N260   1.437       .  S
C254        C255   1.402       .  A
C254        H259   1.084       .  S
C255        C256   1.411       .  A
C256        N257   1.438       .  S
N257        H261   1.046       .  S
N257        H262   1.046       .  S
N260        H263   1.046       .  S
N260        H264   1.046       .  S
C265        C266   1.405       .  A
C265        C270   1.406       .  A
C265        H272   1.083       .  S
C266        C267   1.414       .  A
C267        C268   1.399       .  A
C267        N274   1.431       .  S
C268        C269   1.398       .  A
C268        H273   1.084       .  S
C269        C270   1.412       .  A
C270        N271   1.438       .  S
N271        H275   1.046       .  S
N271        H276   1.046       .  S
N274        H277   1.044       .  S
N274        H278   1.046       .  S
C279        C280   1.399       .  A
C279        C284   1.398       .  A
C279        H286   1.084       .  S
C280        C281   1.416       .  A
C281        C282   1.398       .  A
C281        N288   1.439       .  S
C282        C283   1.399       .  A
C282        H287   1.084       .  S
C283        C284   1.413       .  A
C284        N285   1.438       .  S
N285        H289   1.046       .  S
N285        H290   1.043       .  S
N288        H291   1.043       .  S
N288        H292   1.044       .  S
C293        C294   1.544       .  S
C293        C299   1.535       .  S
C293        C297   1.534       .  S
C293        C416   1.504       .  S
C294        H301   1.086       .  S
C294        C295   1.372       .  D
C295        C296   1.536       .  S
C295        C558   1.489       .  S
C296        C300   1.531       .  S
C296        C298   1.535       .  S
C296        H302   1.109       .  S
C297        H303   1.086       .  S
C297        C298   1.366       .  D
C298        C544   1.478       .  S
C299        H304   1.087       .  S
C299        C300   1.357       .  D
C300        C572   1.467       .  S
C305        C306   1.535       .  S
C305        C311   1.536       .  S
C305        C309   1.533       .  S
C305        C399   1.497       .  S
C306        H313   1.086       .  S
C306        C307   1.364       .  D
C307        C308   1.535       .  S
C307        C533   1.479       .  S
C308        C312   1.536       .  S
C308        C310   1.534       .  S
C308        H314   1.111       .  S
C309        H315   1.086       .  S
C309        C310   1.365       .  D
C310        C516   1.473       .  S
C311        H316   1.086       .  S
C311        C312   1.364       .  D
C312        C561   1.481       .  S
C317        C318   1.533       .  S
C317        C323   1.536       .  S
C317        C321   1.542       .  S
C317        C402   1.509       .  S
C318        H325   1.087       .  S
C318        C319   1.356       .  D
C319        C320   1.537       .  S
C319        C575   1.468       .  S
C320        C324   1.541       .  S
C320        C322   1.548       .  S
C320        H326   1.105       .  S
C321        H327   1.086       .  S
C321        C322   1.377       .  D
C322        C488   1.505       .  S
C323        H328   1.086       .  S
C323        C324   1.365       .  D
C324        C505   1.492       .  S
C329        C330   1.541       .  S
C329        C335   1.535       .  S
C329        C333   1.537       .  S
C329        C413   1.507       .  S
C330        H337   1.086       .  S
C330        C331   1.367       .  D
C331        C332   1.536       .  S
C331        C502   1.487       .  S
C332        C336   1.535       .  S
C332        C334   1.542       .  S
C332        H338   1.110       .  S
C333        H923   1.086       .  S
C333        C334   1.369       .  D
C334        C474   1.487       .  S
C335        H340   1.086       .  S
C335        C336   1.363       .  D
C336        C530   1.481       .  S
H339        C917   1.086       .  S
C341        C342   1.536       .  S
C341        C347   1.541       .  S
C341        C345   1.534       .  S
C341        C414   1.505       .  S
C342        H349   1.086       .  S
C342        C343   1.358       .  D
C343        C344   1.537       .  S
C343        C460   1.475       .  S
C344        C348   1.541       .  S
C344        C346   1.536       .  S
C344        H350   1.103       .  S
C345        H351   1.086       .  S
C345        C346   1.364       .  D
C346        C547   1.480       .  S
C347        H352   1.085       .  S
C347        C348   1.375       .  D
C348        C449   1.501       .  S
C353        C354   1.538       .  S
C353        C359   1.536       .  S
C353        C357   1.531       .  S
C353        C401   1.500       .  S
C354        H361   1.084       .  S
C354        C355   1.369       .  D
C355        C356   1.544       .  S
C355        C446   1.498       .  S
C356        C360   1.543       .  S
C356        C358   1.534       .  S
C356        H362   1.109       .  S
C357        H363   1.087       .  S
C357        C358   1.362       .  D
C358        C519   1.471       .  S
C359        H364   1.086       .  S
C359        C360   1.365       .  D
C360        C435   1.486       .  S
C365        C366   1.536       .  S
C365        C371   1.540       .  S
C365        C369   1.544       .  S
C365        C400   1.509       .  S
C366        H373   1.087       .  S
C366        C367   1.356       .  D
C367        C368   1.531       .  S
C367        C418   1.469       .  S
C368        C372   1.534       .  S
C368        C370   1.545       .  S
C368        H374   1.110       .  S
C369        H375   1.085       .  S
C369        C370   1.376       .  D
C370        C491   1.498       .  S
C371        H376   1.086       .  S
C371        C372   1.362       .  D
C372        C463   1.477       .  S
C377        C378   1.543       .  S
C377        C383   1.533       .  S
C377        C381   1.536       .  S
C377        C415   1.503       .  S
C378        H385   1.086       .  S
C378        C379   1.368       .  D
C379        C380   1.538       .  S
C379        C432   1.489       .  S
C380        C384   1.538       .  S
C380        C382   1.542       .  S
C380        H386   1.109       .  S
C381        H971   1.085       .  S
C381        C382   1.371       .  D
C382        C477   1.492       .  S
C383        H388   1.087       .  S
C383        C384   1.354       .  D
C384        C421   1.471       .  S
H387        C965   1.085       .  S
O389        C399   1.277       .  A
O389      Cu1565   1.996       .  S
O390        C400   1.279       .  A
O391        C401   1.277       .  A
O391      Cu1273   2.004       .  S
O392        C402   1.278       .  A
O392       Cu397   2.010       .  S
O393        C402   1.279       .  A
O393       Cu398   2.006       .  S
O394        C401   1.278       .  A
O394      Cu1274   2.000       .  S
O395        C400   1.278       .  A
O396        C399   1.277       .  A
O396      Cu1566   1.997       .  S
Cu397      O1557   1.996       .  S
Cu397      O1267   2.004   1_556  S
Cu397      Cu398   2.373       .  S
Cu398      O1270   2.000   1_556  S
Cu398      O1564   1.997       .  S
O403        C997   1.276   1_545  A
O403       Cu411   2.000       .  S
O404        C414   1.276       .  A
O405        C999   1.279   1_545  A
O406        C416   1.278       .  A
O406       Cu411   2.000       .  S
O407        C416   1.277       .  A
O407       Cu412   2.011       .  S
O408        C999   1.276   1_545  A
O409        C414   1.280       .  A
O410        C997   1.280   1_545  A
O410       Cu412   2.019       .  S
Cu411      Cu412   2.372       .  S
C413        O987   1.276       .  A
C413        O994   1.280       .  A
C415        O989   1.279       .  A
C415        O992   1.276       .  A
C417        C418   1.400       .  A
C417        C422   1.404       .  A
C417        H424   1.084       .  S
C418        C419   1.407       .  A
C419        C420   1.403       .  A
C419        N426   1.437       .  S
C420        C421   1.400       .  A
C420        H425   1.083       .  S
C421        C422   1.408       .  A
C422        N423   1.438       .  S
N423        H427   1.046       .  S
N423        H428   1.040       .  S
N426        H429   1.046       .  S
N426        H430   1.046       .  S
C431        C432   1.407       .  A
C431        C436   1.411       .  A
C431        H438   1.083       .  S
C432        C433   1.409       .  A
C433        C434   1.398       .  A
C433        N440   1.430       .  S
C434        C435   1.397       .  A
C434        H439   1.075       .  S
C435        C436   1.412       .  A
C436        N437   1.437       .  S
N437        H441   1.045       .  S
N437        H442   1.046       .  S
N440        H443   1.046       .  S
N440        H444   1.046       .  S
C445        C446   1.401       .  A
C445        C450   1.397       .  A
C445        H452   1.074       .  S
C446        C447   1.416       .  A
C447        C448   1.406       .  A
C447        N454   1.437       .  S
C448        C449   1.408       .  A
C448        H453   1.082       .  S
C449        C450   1.416       .  A
C450        N451   1.431       .  S
N451        H455   1.046       .  S
N451        H456   1.046       .  S
N454        H457   1.046       .  S
N454        H458   1.045       .  S
C459        C460   1.400       .  A
C459        C464   1.407       .  A
C459        H466   1.084       .  S
C460        C461   1.409       .  A
C461        C462   1.403       .  A
C461        N468   1.438       .  S
C462        C463   1.400       .  A
C462        H467   1.080       .  S
C463        C464   1.410       .  A
C464        N465   1.437       .  S
N465        H469   1.046       .  S
N465        H470   1.044       .  S
N468        H471   1.045       .  S
N468        H472   1.046       .  S
C473        C474   1.405       .  A
C473        C478   1.410       .  A
C473        H480   1.083       .  S
C474        C475   1.409       .  A
C475        C476   1.399       .  A
C475        N482   1.438       .  S
C476        C477   1.403       .  A
C476        H481   1.079       .  S
C477        C478   1.416       .  A
C478        N479   1.438       .  S
N479        H483   1.045       .  S
N479        H484   1.046       .  S
N482        H485   1.045       .  S
N482        H486   1.045       .  S
C487        C488   1.410       .  A
C487        C492   1.412       .  A
C487        H494   1.083       .  S
C488        C489   1.416       .  A
C489        C490   1.401       .  A
C489        N496   1.430       .  S
C490        C491   1.402       .  A
C490        H495   1.083       .  S
C491        C492   1.412       .  A
C492        N493   1.432       .  S
N493        H497   1.046       .  S
N493        H498   1.046       .  S
N496        H499   1.046       .  S
N496        H500   1.046       .  S
C501        C502   1.403       .  A
C501        C506   1.405       .  A
C501        H508   1.084       .  S
C502        C503   1.413       .  A
C503        C504   1.406       .  A
C503        N510   1.438       .  S
C504        C505   1.405       .  A
C504        H509   1.083       .  S
C505        C506   1.412       .  A
C506        N507   1.431       .  S
N507        H511   1.045       .  S
N507        H512   1.046       .  S
N510        H513   1.045       .  S
N510        H514   1.046       .  S
C515        C516   1.402       .  A
C515        C520   1.400       .  A
C515        H522   1.084       .  S
C516        C517   1.412       .  A
C517        C518   1.398       .  A
C517        N524   1.432       .  S
C518        C519   1.402       .  A
C518        H523   1.084       .  S
C519        C520   1.408       .  A
C520        N521   1.438       .  S
N521        H525   1.046       .  S
N521        H526   1.046       .  S
N524        H527   1.046       .  S
N524        H528   1.044       .  S
C529        C530   1.404       .  A
C529        C534   1.399       .  A
C529        H536   1.084       .  S
C530        C531   1.419       .  A
C531        C532   1.403       .  A
C531        N538   1.439       .  S
C532        C533   1.402       .  A
C532        H537   1.084       .  S
C533        C534   1.408       .  A
C534        N535   1.433       .  S
N535        H539   1.046       .  S
N535        H540   1.046       .  S
N538        H541   1.041       .  S
N538        H542   1.046       .  S
C543        C544   1.401       .  A
C543        C548   1.402       .  A
C543        H550   1.084       .  S
C544        C545   1.410       .  A
C545        C546   1.407       .  A
C545        N552   1.437       .  S
C546        C547   1.402       .  A
C546        H551   1.084       .  S
C547        C548   1.411       .  A
C548        N549   1.438       .  S
N549        H553   1.046       .  S
N549        H554   1.046       .  S
N552        H555   1.046       .  S
N552        H556   1.046       .  S
C557        C558   1.405       .  A
C557        C562   1.406       .  A
C557        H564   1.083       .  S
C558        C559   1.414       .  A
C559        C560   1.399       .  A
C559        N566   1.431       .  S
C560        C561   1.398       .  A
C560        H565   1.084       .  S
C561        C562   1.412       .  A
C562        N563   1.438       .  S
N563        H567   1.046       .  S
N563        H568   1.046       .  S
N566        H569   1.044       .  S
N566        H570   1.046       .  S
C571        C572   1.399       .  A
C571        C576   1.398       .  A
C571        H578   1.084       .  S
C572        C573   1.416       .  A
C573        C574   1.398       .  A
C573        N580   1.439       .  S
C574        C575   1.399       .  A
C574        H579   1.084       .  S
C575        C576   1.413       .  A
C576        N577   1.438       .  S
N577        H581   1.046       .  S
N577        H582   1.043       .  S
N580        H583   1.043       .  S
N580        H584   1.044       .  S
C585        C586   1.544       .  S
C585        C591   1.535       .  S
C585        C589   1.534       .  S
C585        C708   1.504       .  S
C586        H593   1.086       .  S
C586        C587   1.372       .  D
C587        C588   1.536       .  S
C587        C850   1.489       .  S
C588        C592   1.531       .  S
C588        C590   1.535       .  S
C588        H594   1.109       .  S
C589        H595   1.086       .  S
C589        C590   1.366       .  D
C590        C836   1.478       .  S
C591        H596   1.087       .  S
C591        C592   1.357       .  D
C592        C864   1.467       .  S
C597        C598   1.535       .  S
C597        C603   1.536       .  S
C597        C601   1.533       .  S
C597        C691   1.497       .  S
C598        H605   1.086       .  S
C598        C599   1.364       .  D
C599        C600   1.535       .  S
C599        C825   1.479       .  S
C600        C604   1.536       .  S
C600        C602   1.534       .  S
C600        H606   1.111       .  S
C601        H607   1.086       .  S
C601        C602   1.365       .  D
C602        C808   1.473       .  S
C603        H608   1.086       .  S
C603        C604   1.364       .  D
C604        C853   1.481       .  S
C609        C610   1.533       .  S
C609        C615   1.536       .  S
C609        C613   1.542       .  S
C609        C694   1.509       .  S
C610        H617   1.087       .  S
C610        C611   1.356       .  D
C611        C612   1.537       .  S
C611        C867   1.468       .  S
C612        C616   1.541       .  S
C612        C614   1.548       .  S
C612        H618   1.105       .  S
C613        H619   1.086       .  S
C613        C614   1.377       .  D
C614        C780   1.505       .  S
C615        H620   1.086       .  S
C615        C616   1.365       .  D
C616        C797   1.492       .  S
C621        C622   1.541       .  S
C621        C627   1.535       .  S
C621        C625   1.537       .  S
C621        C705   1.507       .  S
C622        H629   1.086       .  S
C622        C623   1.367       .  D
C623        C624   1.536       .  S
C623        C794   1.487       .  S
C624        C628   1.535       .  S
C624        C626   1.542       .  S
C624        H630   1.110       .  S
C625        C626   1.369       .  D
C626        C766   1.487       .  S
C627        H632   1.086       .  S
C627        C628   1.363       .  D
C628        C822   1.481       .  S
C633        C634   1.536       .  S
C633        C639   1.541       .  S
C633        C637   1.534       .  S
C633        C706   1.505       .  S
C634        H641   1.086       .  S
C634        C635   1.358       .  D
C635        C636   1.537       .  S
C635        C752   1.475       .  S
C636        C640   1.541       .  S
C636        C638   1.536       .  S
C636        H642   1.103       .  S
C637        H643   1.086       .  S
C637        C638   1.364       .  D
C638        C839   1.480       .  S
C639        H644   1.085       .  S
C639        C640   1.375       .  D
C640        C741   1.501       .  S
C645        C646   1.538       .  S
C645        C651   1.536       .  S
C645        C649   1.531       .  S
C645        C693   1.500       .  S
C646        H653   1.084       .  S
C646        C647   1.369       .  D
C647        C648   1.544       .  S
C647        C738   1.498       .  S
C648        C652   1.543       .  S
C648        C650   1.534       .  S
C648        H654   1.109       .  S
C649        H655   1.087       .  S
C649        C650   1.362       .  D
C650        C811   1.471       .  S
C651        H656   1.086       .  S
C651        C652   1.365       .  D
C652        C727   1.486       .  S
C657        C658   1.536       .  S
C657        C663   1.540       .  S
C657        C661   1.544       .  S
C657        C692   1.509       .  S
C658        H665   1.087       .  S
C658        C659   1.356       .  D
C659        C660   1.531       .  S
C659        C710   1.469       .  S
C660        C664   1.534       .  S
C660        C662   1.545       .  S
C660        H666   1.110       .  S
C661        H667   1.085       .  S
C661        C662   1.376       .  D
C662        C783   1.498       .  S
C663        H668   1.086       .  S
C663        C664   1.362       .  D
C664        C755   1.477       .  S
C669        C670   1.543       .  S
C669        C675   1.533       .  S
C669        C673   1.536       .  S
C669        C707   1.503       .  S
C670        H677   1.086       .  S
C670        C671   1.368       .  D
C671        C672   1.538       .  S
C671        C724   1.489       .  S
C672        C676   1.538       .  S
C672        C674   1.542       .  S
C672        H678   1.109       .  S
C673        C674   1.371       .  D
C674        C769   1.492       .  S
C675        H680   1.087       .  S
C675        C676   1.354       .  D
C676        C713   1.471       .  S
O681        C691   1.277       .  A
O681      Cu1857   1.996       .  S
O682        C692   1.279       .  A
O682       Cu981   2.010   1_554  S
O683        C693   1.277       .  A
O683      Cu2149   2.004   1_554  S
O684        C694   1.278       .  A
O684       Cu689   2.010       .  S
O685        C694   1.279       .  A
O685       Cu690   2.006       .  S
O686        C693   1.278       .  A
O686      Cu2150   2.000   1_554  S
O687        C692   1.278       .  A
O687       Cu982   2.007   1_554  S
O688        C691   1.277       .  A
O688      Cu1858   1.997       .  S
Cu689      O1849   1.996       .  S
Cu689       O974   2.010       .  S
Cu689      O2143   2.004       .  S
Cu689      Cu690   2.373       .  S
Cu690      O2146   2.000       .  S
Cu690       O979   2.007       .  S
Cu690      O1856   1.997       .  S
O695       Cu703   2.000       .  S
O696        C706   1.276       .  A
O696       Cu995   1.992   1_554  S
O697       Cu995   2.003   1_554  S
O698        C708   1.278       .  A
O698       Cu703   2.000       .  S
O699        C708   1.277       .  A
O699       Cu704   2.011       .  S
O700       Cu996   2.004   1_554  S
O701        C706   1.280       .  A
O701       Cu996   2.019   1_554  S
O702       Cu704   2.019       .  S
Cu703       O988   1.992       .  S
Cu703       O989   2.003       .  S
Cu703      Cu704   2.372       .  S
Cu704       O992   2.004       .  S
Cu704       O993   2.019       .  S
C709        C710   1.400       .  A
C709        C714   1.404       .  A
C709        H716   1.084       .  S
C710        C711   1.407       .  A
C711        C712   1.403       .  A
C711        N718   1.437       .  S
C712        C713   1.400       .  A
C712        H717   1.083       .  S
C713        C714   1.408       .  A
C714        N715   1.438       .  S
N715        H719   1.046       .  S
N715        H720   1.040       .  S
N718        H721   1.046   1_554  S
N718        H722   1.046       .  S
C723        C724   1.407       .  A
C723        C728   1.411       .  A
C723        H730   1.083       .  S
C724        C725   1.409       .  A
C725        C726   1.398       .  A
C725        N732   1.430       .  S
C726        C727   1.397       .  A
C726        H731   1.075       .  S
C727        C728   1.412       .  A
C728        N729   1.437       .  S
N729        H733   1.045       .  S
N729        H734   1.046       .  S
N732        H735   1.046       .  S
N732        H736   1.046       .  S
C737        C738   1.401       .  A
C737        C742   1.397       .  A
C737        H744   1.074       .  S
C738        C739   1.416       .  A
C739        C740   1.406       .  A
C739        N746   1.437       .  S
C740        C741   1.408       .  A
C740        H745   1.082       .  S
C741        C742   1.416       .  A
C742        N743   1.431       .  S
N743        H747   1.046       .  S
N743        H748   1.046       .  S
N746        H749   1.046       .  S
N746        H750   1.045       .  S
C751        C752   1.400       .  A
C751        C756   1.407       .  A
C751        H758   1.084       .  S
C752        C753   1.409       .  A
C753        C754   1.403       .  A
C753        N760   1.438       .  S
C754        C755   1.400       .  A
C754        H759   1.080       .  S
C755        C756   1.410       .  A
C756        N757   1.437       .  S
N757        H761   1.046       .  S
N757        H762   1.044       .  S
N760        H763   1.045       .  S
N760        H764   1.046       .  S
C765        C766   1.405       .  A
C765        C770   1.410       .  A
C765        H772   1.083       .  S
C766        C767   1.409       .  A
C767        C768   1.399       .  A
C767        N774   1.438       .  S
C768        C769   1.403       .  A
C768        H773   1.079       .  S
C769        C770   1.416       .  A
C770        N771   1.438       .  S
N771        H775   1.045   1_565  S
N771        H776   1.046       .  S
N774        H777   1.045       .  S
N774        H778   1.045       .  S
C779        C780   1.410       .  A
C779        C784   1.412       .  A
C779        H786   1.083       .  S
C780        C781   1.416       .  A
C781        C782   1.401       .  A
C781        N788   1.430       .  S
C782        C783   1.402       .  A
C782        H787   1.083       .  S
C783        C784   1.412       .  A
C784        N785   1.432       .  S
N785        H789   1.046       .  S
N785        H790   1.046       .  S
N788        H791   1.046       .  S
N788        H792   1.046       .  S
C793        C794   1.403       .  A
C793        C798   1.405       .  A
C793        H800   1.084       .  S
C794        C795   1.413       .  A
C795        C796   1.406       .  A
C795        N802   1.438       .  S
C796        C797   1.405       .  A
C796        H801   1.083       .  S
C797        C798   1.412       .  A
C798        N799   1.431       .  S
N799        H803   1.045       .  S
N799        H804   1.046       .  S
N802        H805   1.045       .  S
N802        H806   1.046       .  S
C807        C808   1.402       .  A
C807        C812   1.400       .  A
C807        H814   1.084       .  S
C808        C809   1.412       .  A
C809        C810   1.398       .  A
C809        N816   1.432       .  S
C810        C811   1.402       .  A
C810        H815   1.084       .  S
C811        C812   1.408       .  A
C812        N813   1.438       .  S
N813        H817   1.046       .  S
N813        H818   1.046       .  S
N816        H819   1.046       .  S
N816        H820   1.044       .  S
C821        C822   1.404       .  A
C821        C826   1.399       .  A
C821        H828   1.084       .  S
C822        C823   1.419       .  A
C823        C824   1.403       .  A
C823        N830   1.439       .  S
C824        C825   1.402       .  A
C824        H829   1.084       .  S
C825        C826   1.408       .  A
C826        N827   1.433       .  S
N827        H831   1.046       .  S
N827        H832   1.046       .  S
N830        H833   1.041       .  S
N830        H834   1.046       .  S
C835        C836   1.401       .  A
C835        C840   1.402       .  A
C835        H842   1.084       .  S
C836        C837   1.410       .  A
C837        C838   1.407       .  A
C837        N844   1.437       .  S
C838        C839   1.402       .  A
C838        H843   1.084       .  S
C839        C840   1.411       .  A
C840        N841   1.438       .  S
N841        H845   1.046       .  S
N841        H846   1.046       .  S
N844        H847   1.046       .  S
N844        H848   1.046       .  S
C849        C850   1.405       .  A
C849        C854   1.406       .  A
C849        H856   1.083       .  S
C850        C851   1.414       .  A
C851        C852   1.399       .  A
C851        N858   1.431       .  S
C852        C853   1.398       .  A
C852        H857   1.084       .  S
C853        C854   1.412       .  A
C854        N855   1.438       .  S
N855        H859   1.046       .  S
N855        H860   1.046       .  S
N858        H861   1.044       .  S
N858        H862   1.046       .  S
C863        C864   1.399       .  A
C863        C868   1.398       .  A
C863        H870   1.084       .  S
C864        C865   1.416       .  A
C865        C866   1.398       .  A
C865        N872   1.439       .  S
C866        C867   1.399       .  A
C866        H871   1.084       .  S
C867        C868   1.413       .  A
C868        N869   1.438       .  S
N869        H873   1.046       .  S
N869        H874   1.043       .  S
N872        H875   1.043       .  S
N872        H876   1.044       .  S
C877        C878   1.544       .  S
C877        C883   1.535       .  S
C877        C881   1.534       .  S
C877       C1000   1.504       .  S
C878        H885   1.086       .  S
C878        C879   1.372       .  D
C879        C880   1.536       .  S
C879       C1142   1.489       .  S
C880        C884   1.531       .  S
C880        C882   1.535       .  S
C880        H886   1.109       .  S
C881        H887   1.086       .  S
C881        C882   1.366       .  D
C882       C1128   1.478       .  S
C883        H888   1.087       .  S
C883        C884   1.357       .  D
C884       C1156   1.467       .  S
C889        C890   1.535       .  S
C889        C895   1.536       .  S
C889        C893   1.533       .  S
C889        C983   1.497       .  S
C890        H897   1.086       .  S
C890        C891   1.364       .  D
C891        C892   1.535       .  S
C891       C1117   1.479       .  S
C892        C896   1.536       .  S
C892        C894   1.534       .  S
C892        H898   1.111       .  S
C893        H899   1.086       .  S
C893        C894   1.365       .  D
C894       C1100   1.473       .  S
C895        H900   1.086       .  S
C895        C896   1.364       .  D
C896       C1145   1.481       .  S
C901        C902   1.533       .  S
C901        C907   1.536       .  S
C901        C905   1.542       .  S
C901        C986   1.509       .  S
C902        H909   1.087       .  S
C902        C903   1.356       .  D
C903        C904   1.537       .  S
C903       C1159   1.468       .  S
C904        C908   1.541       .  S
C904        C906   1.548       .  S
C904        H910   1.105       .  S
C905        H911   1.086       .  S
C905        C906   1.377       .  D
C906       C1072   1.505       .  S
C907        H912   1.086       .  S
C907        C908   1.365       .  D
C908       C1089   1.492       .  S
C913        C914   1.541       .  S
C913        C919   1.535       .  S
C913        C917   1.537       .  S
C913        C997   1.507       .  S
C914        H921   1.086       .  S
C914        C915   1.367       .  D
C915        C916   1.536       .  S
C915       C1086   1.487       .  S
C916        C920   1.535       .  S
C916        C918   1.542       .  S
C916        H922   1.110       .  S
C917        C918   1.369       .  D
C918       C1058   1.487       .  S
C919        H924   1.086       .  S
C919        C920   1.363       .  D
C920       C1114   1.481       .  S
C925        C926   1.536       .  S
C925        C931   1.541       .  S
C925        C929   1.534       .  S
C925        C998   1.505       .  S
C926        H933   1.086       .  S
C926        C927   1.358       .  D
C927        C928   1.537       .  S
C927       C1044   1.475       .  S
C928        C932   1.541       .  S
C928        C930   1.536       .  S
C928        H934   1.103       .  S
C929        H935   1.086       .  S
C929        C930   1.364       .  D
C930       C1131   1.480       .  S
C931        H936   1.085       .  S
C931        C932   1.375       .  D
C932       C1033   1.501       .  S
C937        C938   1.538       .  S
C937        C943   1.536       .  S
C937        C941   1.531       .  S
C937        C985   1.500       .  S
C938        H945   1.084       .  S
C938        C939   1.369       .  D
C939        C940   1.544       .  S
C939       C1030   1.498       .  S
C940        C944   1.543       .  S
C940        C942   1.534       .  S
C940        H946   1.109       .  S
C941        H947   1.087       .  S
C941        C942   1.362       .  D
C942       C1103   1.471       .  S
C943        H948   1.086       .  S
C943        C944   1.365       .  D
C944       C1019   1.486       .  S
C949        C950   1.536       .  S
C949        C955   1.540       .  S
C949        C953   1.544       .  S
C949        C984   1.509       .  S
C950        H957   1.087       .  S
C950        C951   1.356       .  D
C951        C952   1.531       .  S
C951       C1002   1.469       .  S
C952        C956   1.534       .  S
C952        C954   1.545       .  S
C952        H958   1.110       .  S
C953        H959   1.085       .  S
C953        C954   1.376       .  D
C954       C1075   1.498       .  S
C955        H960   1.086       .  S
C955        C956   1.362       .  D
C956       C1047   1.477       .  S
C961        C962   1.543       .  S
C961        C967   1.533       .  S
C961        C965   1.536       .  S
C961        C999   1.503       .  S
C962        H969   1.086       .  S
C962        C963   1.368       .  D
C963        C964   1.538       .  S
C963       C1016   1.489       .  S
C964        C968   1.538       .  S
C964        C966   1.542       .  S
C964        H970   1.109       .  S
C965        C966   1.371       .  D
C966       C1061   1.492       .  S
C967        H972   1.087       .  S
C967        C968   1.354       .  D
C968       C1005   1.471       .  S
O973        C983   1.277       .  A
O973      Cu2149   1.996       .  S
O974        C984   1.279       .  A
O975        C985   1.277       .  A
O975      Cu1857   2.004       .  S
O976        C986   1.278       .  A
O976       Cu981   2.010       .  S
O977        C986   1.279       .  A
O977       Cu982   2.006       .  S
O978        C985   1.278       .  A
O978      Cu1858   2.000       .  S
O979        C984   1.278       .  A
O980        C983   1.277       .  A
O980      Cu2150   1.997       .  S
Cu981      O2141   1.996       .  S
Cu981      O1851   2.004   1_556  S
Cu981      Cu982   2.373       .  S
Cu982      O1854   2.000   1_556  S
Cu982      O2148   1.997       .  S
O987       Cu995   2.000       .  S
O988        C998   1.276       .  A
O990       C1000   1.278       .  A
O990       Cu995   2.000       .  S
O991       C1000   1.277       .  A
O991       Cu996   2.011       .  S
O993        C998   1.280       .  A
O994       Cu996   2.019       .  S
Cu995      Cu996   2.372       .  S
C1001      C1002   1.400       .  A
C1001      C1006   1.404       .  A
C1001      H1008   1.084       .  S
C1002      C1003   1.407       .  A
C1003      C1004   1.403       .  A
C1003      N1010   1.437       .  S
C1004      C1005   1.400       .  A
C1004      H1009   1.083       .  S
C1005      C1006   1.408       .  A
C1006      N1007   1.438       .  S
N1007      H1011   1.046       .  S
N1007      H1012   1.040       .  S
N1010      H1013   1.046       .  S
N1010      H1014   1.046       .  S
C1015      C1016   1.407       .  A
C1015      C1020   1.411       .  A
C1015      H1022   1.083       .  S
C1016      C1017   1.409       .  A
C1017      C1018   1.398       .  A
C1017      N1024   1.430       .  S
C1018      C1019   1.397       .  A
C1018      H1023   1.075       .  S
C1019      C1020   1.412       .  A
C1020      N1021   1.437       .  S
N1021      H1025   1.045       .  S
N1021      H1026   1.046       .  S
N1024      H1027   1.046       .  S
N1024      H1028   1.046       .  S
C1029      C1030   1.401       .  A
C1029      C1034   1.397       .  A
C1029      H1036   1.074       .  S
C1030      C1031   1.416       .  A
C1031      C1032   1.406       .  A
C1031      N1038   1.437       .  S
C1032      C1033   1.408       .  A
C1032      H1037   1.082       .  S
C1033      C1034   1.416       .  A
C1034      N1035   1.431       .  S
N1035      H1039   1.046       .  S
N1035      H1040   1.046       .  S
N1038      H1041   1.046       .  S
N1038      H1042   1.045       .  S
C1043      C1044   1.400       .  A
C1043      C1048   1.407       .  A
C1043      H1050   1.084       .  S
C1044      C1045   1.409       .  A
C1045      C1046   1.403       .  A
C1045      N1052   1.438       .  S
C1046      C1047   1.400       .  A
C1046      H1051   1.080       .  S
C1047      C1048   1.410       .  A
C1048      N1049   1.437       .  S
N1049      H1053   1.046       .  S
N1049      H1054   1.044       .  S
N1052      H1055   1.045       .  S
N1052      H1056   1.046       .  S
C1057      C1058   1.405       .  A
C1057      C1062   1.410       .  A
C1057      H1064   1.083       .  S
C1058      C1059   1.409       .  A
C1059      C1060   1.399       .  A
C1059      N1066   1.438       .  S
C1060      C1061   1.403       .  A
C1060      H1065   1.079       .  S
C1061      C1062   1.416       .  A
C1062      N1063   1.438       .  S
N1063      H1067   1.045   1_565  S
N1063      H1068   1.046       .  S
N1066      H1069   1.045       .  S
N1066      H1070   1.045       .  S
C1071      C1072   1.410       .  A
C1071      C1076   1.412       .  A
C1071      H1078   1.083       .  S
C1072      C1073   1.416       .  A
C1073      C1074   1.401       .  A
C1073      N1080   1.430       .  S
C1074      C1075   1.402       .  A
C1074      H1079   1.083       .  S
C1075      C1076   1.412       .  A
C1076      N1077   1.432       .  S
N1077      H1081   1.046       .  S
N1077      H1082   1.046       .  S
N1080      H1083   1.046       .  S
N1080      H1084   1.046       .  S
C1085      C1086   1.403       .  A
C1085      C1090   1.405       .  A
C1085      H1092   1.084       .  S
C1086      C1087   1.413       .  A
C1087      C1088   1.406       .  A
C1087      N1094   1.438       .  S
C1088      C1089   1.405       .  A
C1088      H1093   1.083       .  S
C1089      C1090   1.412       .  A
C1090      N1091   1.431       .  S
N1091      H1095   1.045       .  S
N1091      H1096   1.046       .  S
N1094      H1097   1.045       .  S
N1094      H1098   1.046       .  S
C1099      C1100   1.402       .  A
C1099      C1104   1.400       .  A
C1099      H1106   1.084       .  S
C1100      C1101   1.412       .  A
C1101      C1102   1.398       .  A
C1101      N1108   1.432       .  S
C1102      C1103   1.402       .  A
C1102      H1107   1.084       .  S
C1103      C1104   1.408       .  A
C1104      N1105   1.438       .  S
N1105      H1109   1.046       .  S
N1105      H1110   1.046       .  S
N1108      H1111   1.046       .  S
N1108      H1112   1.044       .  S
C1113      C1114   1.404       .  A
C1113      C1118   1.399       .  A
C1113      H1120   1.084       .  S
C1114      C1115   1.419       .  A
C1115      C1116   1.403       .  A
C1115      N1122   1.439       .  S
C1116      C1117   1.402       .  A
C1116      H1121   1.084       .  S
C1117      C1118   1.408       .  A
C1118      N1119   1.433       .  S
N1119      H1123   1.046       .  S
N1119      H1124   1.046       .  S
N1122      H1125   1.041       .  S
N1122      H1126   1.046       .  S
C1127      C1128   1.401       .  A
C1127      C1132   1.402       .  A
C1127      H1134   1.084       .  S
C1128      C1129   1.410       .  A
C1129      C1130   1.407       .  A
C1129      N1136   1.437       .  S
C1130      C1131   1.402       .  A
C1130      H1135   1.084       .  S
C1131      C1132   1.411       .  A
C1132      N1133   1.438       .  S
N1133      H1137   1.046       .  S
N1133      H1138   1.046       .  S
N1136      H1139   1.046       .  S
N1136      H1140   1.046       .  S
C1141      C1142   1.405       .  A
C1141      C1146   1.406       .  A
C1141      H1148   1.083       .  S
C1142      C1143   1.414       .  A
C1143      C1144   1.399       .  A
C1143      N1150   1.431       .  S
C1144      C1145   1.398       .  A
C1144      H1149   1.084       .  S
C1145      C1146   1.412       .  A
C1146      N1147   1.438       .  S
N1147      H1151   1.046       .  S
N1147      H1152   1.046       .  S
N1150      H1153   1.044       .  S
N1150      H1154   1.046       .  S
C1155      C1156   1.399       .  A
C1155      C1160   1.398       .  A
C1155      H1162   1.084       .  S
C1156      C1157   1.416       .  A
C1157      C1158   1.398       .  A
C1157      N1164   1.439       .  S
C1158      C1159   1.399       .  A
C1158      H1163   1.084       .  S
C1159      C1160   1.413       .  A
C1160      N1161   1.438       .  S
N1161      H1165   1.046       .  S
N1161      H1166   1.043       .  S
N1164      H1167   1.043       .  S
N1164      H1168   1.044       .  S
C1169      C1170   1.544       .  S
C1169      C1175   1.535       .  S
C1169      C1173   1.534       .  S
C1169      C1292   1.504       .  S
C1170      H1177   1.086       .  S
C1170      C1171   1.372       .  D
C1171      C1172   1.536       .  S
C1171      C1434   1.489       .  S
C1172      C1176   1.531       .  S
C1172      C1174   1.535       .  S
C1172      H1178   1.109       .  S
C1173      H1179   1.086       .  S
C1173      C1174   1.366       .  D
C1174      C1420   1.478       .  S
C1175      H1180   1.087       .  S
C1175      C1176   1.357       .  D
C1176      C1448   1.467       .  S
C1181      C1182   1.535       .  S
C1181      C1187   1.536       .  S
C1181      C1185   1.533       .  S
C1181      C1275   1.497       .  S
C1182      H1189   1.086       .  S
C1182      C1183   1.364       .  D
C1183      C1184   1.535       .  S
C1183      C1409   1.479       .  S
C1184      C1188   1.536       .  S
C1184      C1186   1.534       .  S
C1184      H1190   1.111       .  S
C1185      H1191   1.086       .  S
C1185      C1186   1.365       .  D
C1186      C1392   1.473       .  S
C1187      H1192   1.086       .  S
C1187      C1188   1.364       .  D
C1188      C1437   1.481       .  S
C1193      C1194   1.533       .  S
C1193      C1199   1.536       .  S
C1193      C1197   1.542       .  S
C1193      C1278   1.509       .  S
C1194      H1201   1.087       .  S
C1194      C1195   1.356       .  D
C1195      C1196   1.537       .  S
C1195      C1451   1.468       .  S
C1196      C1200   1.541       .  S
C1196      C1198   1.548       .  S
C1196      H1202   1.105       .  S
C1197      H1203   1.086       .  S
C1197      C1198   1.377       .  D
C1198      C1364   1.505       .  S
C1199      H1204   1.086       .  S
C1199      C1200   1.365       .  D
C1200      C1381   1.492       .  S
C1205      C1206   1.541       .  S
C1205      C1211   1.535       .  S
C1205      C1209   1.537       .  S
C1205      C1289   1.507       .  S
C1206      H1213   1.086       .  S
C1206      C1207   1.367       .  D
C1207      C1208   1.536       .  S
C1207      C1378   1.487       .  S
C1208      C1212   1.535       .  S
C1208      C1210   1.542       .  S
C1208      H1214   1.110       .  S
C1209      H1799   1.086       .  S
C1209      C1210   1.369       .  D
C1210      C1350   1.487       .  S
C1211      H1216   1.086       .  S
C1211      C1212   1.363       .  D
C1212      C1406   1.481       .  S
H1215      C1793   1.086       .  S
C1217      C1218   1.536       .  S
C1217      C1223   1.541       .  S
C1217      C1221   1.534       .  S
C1217      C1290   1.505       .  S
C1218      H1225   1.086       .  S
C1218      C1219   1.358       .  D
C1219      C1220   1.537       .  S
C1219      C1336   1.475       .  S
C1220      C1224   1.541       .  S
C1220      C1222   1.536       .  S
C1220      H1226   1.103       .  S
C1221      H1227   1.086       .  S
C1221      C1222   1.364       .  D
C1222      C1423   1.480       .  S
C1223      H1228   1.085       .  S
C1223      C1224   1.375       .  D
C1224      C1325   1.501       .  S
C1229      C1230   1.538       .  S
C1229      C1235   1.536       .  S
C1229      C1233   1.531       .  S
C1229      C1277   1.500       .  S
C1230      H1237   1.084       .  S
C1230      C1231   1.369       .  D
C1231      C1232   1.544       .  S
C1231      C1322   1.498       .  S
C1232      C1236   1.543       .  S
C1232      C1234   1.534       .  S
C1232      H1238   1.109       .  S
C1233      H1239   1.087       .  S
C1233      C1234   1.362       .  D
C1234      C1395   1.471       .  S
C1235      H1240   1.086       .  S
C1235      C1236   1.365       .  D
C1236      C1311   1.486       .  S
C1241      C1242   1.536       .  S
C1241      C1247   1.540       .  S
C1241      C1245   1.544       .  S
C1241      C1276   1.509       .  S
C1242      H1249   1.087       .  S
C1242      C1243   1.356       .  D
C1243      C1244   1.531       .  S
C1243      C1294   1.469       .  S
C1244      C1248   1.534       .  S
C1244      C1246   1.545       .  S
C1244      H1250   1.110       .  S
C1245      H1251   1.085       .  S
C1245      C1246   1.376       .  D
C1246      C1367   1.498       .  S
C1247      H1252   1.086       .  S
C1247      C1248   1.362       .  D
C1248      C1339   1.477       .  S
C1253      C1254   1.543       .  S
C1253      C1259   1.533       .  S
C1253      C1257   1.536       .  S
C1253      C1291   1.503       .  S
C1254      H1261   1.086       .  S
C1254      C1255   1.368       .  D
C1255      C1256   1.538       .  S
C1255      C1308   1.489       .  S
C1256      C1260   1.538       .  S
C1256      C1258   1.542       .  S
C1256      H1262   1.109       .  S
C1257      H1847   1.085       .  S
C1257      C1258   1.371       .  D
C1258      C1353   1.492       .  S
C1259      H1264   1.087       .  S
C1259      C1260   1.354       .  D
C1260      C1297   1.471       .  S
H1263      C1841   1.085       .  S
O1265      C1275   1.277       .  A
O1266      C1276   1.279       .  A
O1266     Cu1565   2.010   1_654  S
O1267      C1277   1.277       .  A
O1268      C1278   1.278       .  A
O1268     Cu1273   2.010   1_655  S
O1269      C1278   1.279       .  A
O1269     Cu1274   2.006   1_655  S
O1270      C1277   1.278       .  A
O1271      C1276   1.278       .  A
O1271     Cu1566   2.007   1_654  S
O1272      C1275   1.277       .  A
Cu1273     O1558   2.010   1_455  S
Cu1273    Cu1274   2.373       .  S
Cu1274     O1563   2.007   1_455  S
O1279      C1873   1.276   1_545  A
O1279     Cu1287   2.000       .  S
O1280      C1290   1.276       .  A
O1280     Cu1579   1.992   1_554  S
O1281      C1875   1.279   1_545  A
O1281     Cu1579   2.003   1_554  S
O1282      C1292   1.278       .  A
O1282     Cu1287   2.000       .  S
O1283      C1292   1.277       .  A
O1283     Cu1288   2.011       .  S
O1284      C1875   1.276   1_545  A
O1284     Cu1580   2.004   1_554  S
O1285      C1290   1.280       .  A
O1285     Cu1580   2.019   1_554  S
O1286      C1873   1.280   1_545  A
O1286     Cu1288   2.019       .  S
Cu1287     O1572   1.992       .  S
Cu1287     O1573   2.003       .  S
Cu1287    Cu1288   2.372       .  S
Cu1288     O1576   2.004       .  S
Cu1288     O1577   2.019       .  S
C1289      O1863   1.276       .  A
C1289      O1870   1.280       .  A
C1291      O1865   1.279       .  A
C1291      O1868   1.276       .  A
C1293      C1294   1.400       .  A
C1293      C1298   1.404       .  A
C1293      H1300   1.084       .  S
C1294      C1295   1.407       .  A
C1295      C1296   1.403       .  A
C1295      N1302   1.437       .  S
C1296      C1297   1.400       .  A
C1296      H1301   1.083       .  S
C1297      C1298   1.408       .  A
C1298      N1299   1.438       .  S
N1299      H1303   1.046       .  S
N1299      H1304   1.040       .  S
N1302      H1305   1.046   1_554  S
N1302      H1306   1.046       .  S
C1307      C1308   1.407       .  A
C1307      C1312   1.411       .  A
C1307      H1314   1.083       .  S
C1308      C1309   1.409       .  A
C1309      C1310   1.398       .  A
C1309      N1316   1.430       .  S
C1310      C1311   1.397       .  A
C1310      H1315   1.075       .  S
C1311      C1312   1.412       .  A
C1312      N1313   1.437       .  S
N1313      H1317   1.045       .  S
N1313      H1318   1.046       .  S
N1316      H1319   1.046       .  S
N1316      H1320   1.046       .  S
C1321      C1322   1.401       .  A
C1321      C1326   1.397       .  A
C1321      H1328   1.074       .  S
C1322      C1323   1.416       .  A
C1323      C1324   1.406       .  A
C1323      N1330   1.437       .  S
C1324      C1325   1.408       .  A
C1324      H1329   1.082       .  S
C1325      C1326   1.416       .  A
C1326      N1327   1.431       .  S
N1327      H1331   1.046       .  S
N1327      H1332   1.046       .  S
N1330      H1333   1.046       .  S
N1330      H1334   1.045       .  S
C1335      C1336   1.400       .  A
C1335      C1340   1.407       .  A
C1335      H1342   1.084       .  S
C1336      C1337   1.409       .  A
C1337      C1338   1.403       .  A
C1337      N1344   1.438       .  S
C1338      C1339   1.400       .  A
C1338      H1343   1.080       .  S
C1339      C1340   1.410       .  A
C1340      N1341   1.437       .  S
N1341      H1345   1.046       .  S
N1341      H1346   1.044       .  S
N1344      H1347   1.045       .  S
N1344      H1348   1.046       .  S
C1349      C1350   1.405       .  A
C1349      C1354   1.410       .  A
C1349      H1356   1.083       .  S
C1350      C1351   1.409       .  A
C1351      C1352   1.399       .  A
C1351      N1358   1.438       .  S
C1352      C1353   1.403       .  A
C1352      H1357   1.079       .  S
C1353      C1354   1.416       .  A
C1354      N1355   1.438       .  S
N1355      H1359   1.045       .  S
N1355      H1360   1.046       .  S
N1358      H1361   1.045       .  S
N1358      H1362   1.045       .  S
C1363      C1364   1.410       .  A
C1363      C1368   1.412       .  A
C1363      H1370   1.083       .  S
C1364      C1365   1.416       .  A
C1365      C1366   1.401       .  A
C1365      N1372   1.430       .  S
C1366      C1367   1.402       .  A
C1366      H1371   1.083       .  S
C1367      C1368   1.412       .  A
C1368      N1369   1.432       .  S
N1369      H1373   1.046       .  S
N1369      H1374   1.046       .  S
N1372      H1375   1.046       .  S
N1372      H1376   1.046       .  S
C1377      C1378   1.403       .  A
C1377      C1382   1.405       .  A
C1377      H1384   1.084       .  S
C1378      C1379   1.413       .  A
C1379      C1380   1.406       .  A
C1379      N1386   1.438       .  S
C1380      C1381   1.405       .  A
C1380      H1385   1.083       .  S
C1381      C1382   1.412       .  A
C1382      N1383   1.431       .  S
N1383      H1387   1.045       .  S
N1383      H1388   1.046       .  S
N1386      H1389   1.045       .  S
N1386      H1390   1.046       .  S
C1391      C1392   1.402       .  A
C1391      C1396   1.400       .  A
C1391      H1398   1.084       .  S
C1392      C1393   1.412       .  A
C1393      C1394   1.398       .  A
C1393      N1400   1.432       .  S
C1394      C1395   1.402       .  A
C1394      H1399   1.084       .  S
C1395      C1396   1.408       .  A
C1396      N1397   1.438       .  S
N1397      H1401   1.046       .  S
N1397      H1402   1.046       .  S
N1400      H1403   1.046       .  S
N1400      H1404   1.044       .  S
C1405      C1406   1.404       .  A
C1405      C1410   1.399       .  A
C1405      H1412   1.084       .  S
C1406      C1407   1.419       .  A
C1407      C1408   1.403       .  A
C1407      N1414   1.439       .  S
C1408      C1409   1.402       .  A
C1408      H1413   1.084       .  S
C1409      C1410   1.408       .  A
C1410      N1411   1.433       .  S
N1411      H1415   1.046       .  S
N1411      H1416   1.046       .  S
N1414      H1417   1.041       .  S
N1414      H1418   1.046       .  S
C1419      C1420   1.401       .  A
C1419      C1424   1.402       .  A
C1419      H1426   1.084       .  S
C1420      C1421   1.410       .  A
C1421      C1422   1.407       .  A
C1421      N1428   1.437       .  S
C1422      C1423   1.402       .  A
C1422      H1427   1.084       .  S
C1423      C1424   1.411       .  A
C1424      N1425   1.438       .  S
N1425      H1429   1.046       .  S
N1425      H1430   1.046       .  S
N1428      H1431   1.046       .  S
N1428      H1432   1.046       .  S
C1433      C1434   1.405       .  A
C1433      C1438   1.406       .  A
C1433      H1440   1.083       .  S
C1434      C1435   1.414       .  A
C1435      C1436   1.399       .  A
C1435      N1442   1.431       .  S
C1436      C1437   1.398       .  A
C1436      H1441   1.084       .  S
C1437      C1438   1.412       .  A
C1438      N1439   1.438       .  S
N1439      H1443   1.046       .  S
N1439      H1444   1.046       .  S
N1442      H1445   1.044       .  S
N1442      H1446   1.046       .  S
C1447      C1448   1.399       .  A
C1447      C1452   1.398       .  A
C1447      H1454   1.084       .  S
C1448      C1449   1.416       .  A
C1449      C1450   1.398       .  A
C1449      N1456   1.439       .  S
C1450      C1451   1.399       .  A
C1450      H1455   1.084       .  S
C1451      C1452   1.413       .  A
C1452      N1453   1.438       .  S
N1453      H1457   1.046       .  S
N1453      H1458   1.043       .  S
N1456      H1459   1.043       .  S
N1456      H1460   1.044       .  S
C1461      C1462   1.544       .  S
C1461      C1467   1.535       .  S
C1461      C1465   1.534       .  S
C1461      C1584   1.504       .  S
C1462      H1469   1.086       .  S
C1462      C1463   1.372       .  D
C1463      C1464   1.536       .  S
C1463      C1726   1.489       .  S
C1464      C1468   1.531       .  S
C1464      C1466   1.535       .  S
C1464      H1470   1.109       .  S
C1465      H1471   1.086       .  S
C1465      C1466   1.366       .  D
C1466      C1712   1.478       .  S
C1467      H1472   1.087       .  S
C1467      C1468   1.357       .  D
C1468      C1740   1.467       .  S
C1473      C1474   1.535       .  S
C1473      C1479   1.536       .  S
C1473      C1477   1.533       .  S
C1473      C1567   1.497       .  S
C1474      H1481   1.086       .  S
C1474      C1475   1.364       .  D
C1475      C1476   1.535       .  S
C1475      C1701   1.479       .  S
C1476      C1480   1.536       .  S
C1476      C1478   1.534       .  S
C1476      H1482   1.111       .  S
C1477      H1483   1.086       .  S
C1477      C1478   1.365       .  D
C1478      C1684   1.473       .  S
C1479      H1484   1.086       .  S
C1479      C1480   1.364       .  D
C1480      C1729   1.481       .  S
C1485      C1486   1.533       .  S
C1485      C1491   1.536       .  S
C1485      C1489   1.542       .  S
C1485      C1570   1.509       .  S
C1486      H1493   1.087       .  S
C1486      C1487   1.356       .  D
C1487      C1488   1.537       .  S
C1487      C1743   1.468       .  S
C1488      C1492   1.541       .  S
C1488      C1490   1.548       .  S
C1488      H1494   1.105       .  S
C1489      H1495   1.086       .  S
C1489      C1490   1.377       .  D
C1490      C1656   1.505       .  S
C1491      H1496   1.086       .  S
C1491      C1492   1.365       .  D
C1492      C1673   1.492       .  S
C1497      C1498   1.541       .  S
C1497      C1503   1.535       .  S
C1497      C1501   1.537       .  S
C1497      C1581   1.507       .  S
C1498      H1505   1.086       .  S
C1498      C1499   1.367       .  D
C1499      C1500   1.536       .  S
C1499      C1670   1.487       .  S
C1500      C1504   1.535       .  S
C1500      C1502   1.542       .  S
C1500      H1506   1.110       .  S
C1501      H2091   1.086       .  S
C1501      C1502   1.369       .  D
C1502      C1642   1.487       .  S
C1503      H1508   1.086       .  S
C1503      C1504   1.363       .  D
C1504      C1698   1.481       .  S
H1507      C2085   1.086       .  S
C1509      C1510   1.536       .  S
C1509      C1515   1.541       .  S
C1509      C1513   1.534       .  S
C1509      C1582   1.505       .  S
C1510      H1517   1.086       .  S
C1510      C1511   1.358       .  D
C1511      C1512   1.537       .  S
C1511      C1628   1.475       .  S
C1512      C1516   1.541       .  S
C1512      C1514   1.536       .  S
C1512      H1518   1.103       .  S
C1513      H1519   1.086       .  S
C1513      C1514   1.364       .  D
C1514      C1715   1.480       .  S
C1515      H1520   1.085       .  S
C1515      C1516   1.375       .  D
C1516      C1617   1.501       .  S
C1521      C1522   1.538       .  S
C1521      C1527   1.536       .  S
C1521      C1525   1.531       .  S
C1521      C1569   1.500       .  S
C1522      H1529   1.084       .  S
C1522      C1523   1.369       .  D
C1523      C1524   1.544       .  S
C1523      C1614   1.498       .  S
C1524      C1528   1.543       .  S
C1524      C1526   1.534       .  S
C1524      H1530   1.109       .  S
C1525      H1531   1.087       .  S
C1525      C1526   1.362       .  D
C1526      C1687   1.471       .  S
C1527      H1532   1.086       .  S
C1527      C1528   1.365       .  D
C1528      C1603   1.486       .  S
C1533      C1534   1.536       .  S
C1533      C1539   1.540       .  S
C1533      C1537   1.544       .  S
C1533      C1568   1.509       .  S
C1534      H1541   1.087       .  S
C1534      C1535   1.356       .  D
C1535      C1536   1.531       .  S
C1535      C1586   1.469       .  S
C1536      C1540   1.534       .  S
C1536      C1538   1.545       .  S
C1536      H1542   1.110       .  S
C1537      H1543   1.085       .  S
C1537      C1538   1.376       .  D
C1538      C1659   1.498       .  S
C1539      H1544   1.086       .  S
C1539      C1540   1.362       .  D
C1540      C1631   1.477       .  S
C1545      C1546   1.543       .  S
C1545      C1551   1.533       .  S
C1545      C1549   1.536       .  S
C1545      C1583   1.503       .  S
C1546      H1553   1.086       .  S
C1546      C1547   1.368       .  D
C1547      C1548   1.538       .  S
C1547      C1600   1.489       .  S
C1548      C1552   1.538       .  S
C1548      C1550   1.542       .  S
C1548      H1554   1.109       .  S
C1549      H2139   1.085       .  S
C1549      C1550   1.371       .  D
C1550      C1645   1.492       .  S
C1551      H1556   1.087       .  S
C1551      C1552   1.354       .  D
C1552      C1589   1.471       .  S
H1555      C2133   1.085       .  S
O1557      C1567   1.277       .  A
O1558      C1568   1.279       .  A
O1559      C1569   1.277       .  A
O1560      C1570   1.278       .  A
O1560     Cu1565   2.010   1_655  S
O1561      C1570   1.279       .  A
O1561     Cu1566   2.006   1_655  S
O1562      C1569   1.278       .  A
O1563      C1568   1.278       .  A
O1564      C1567   1.277       .  A
Cu1565    Cu1566   2.373       .  S
O1571      C2165   1.276   1_545  A
O1571     Cu1579   2.000       .  S
O1572      C1582   1.276       .  A
O1573      C2167   1.279   1_545  A
O1574      C1584   1.278       .  A
O1574     Cu1579   2.000       .  S
O1575      C1584   1.277       .  A
O1575     Cu1580   2.011       .  S
O1576      C2167   1.276   1_545  A
O1577      C1582   1.280       .  A
O1578      C2165   1.280   1_545  A
O1578     Cu1580   2.019       .  S
Cu1579    Cu1580   2.372       .  S
C1581      O2155   1.276       .  A
C1581      O2162   1.280       .  A
C1583      O2157   1.279       .  A
C1583      O2160   1.276       .  A
C1585      C1586   1.400       .  A
C1585      C1590   1.404       .  A
C1585      H1592   1.084       .  S
C1586      C1587   1.407       .  A
C1587      C1588   1.403       .  A
C1587      N1594   1.437       .  S
C1588      C1589   1.400       .  A
C1588      H1593   1.083       .  S
C1589      C1590   1.408       .  A
C1590      N1591   1.438       .  S
N1591      H1595   1.046       .  S
N1591      H1596   1.040       .  S
N1594      H1597   1.046       .  S
N1594      H1598   1.046       .  S
C1599      C1600   1.407       .  A
C1599      C1604   1.411       .  A
C1599      H1606   1.083       .  S
C1600      C1601   1.409       .  A
C1601      C1602   1.398       .  A
C1601      N1608   1.430       .  S
C1602      C1603   1.397       .  A
C1602      H1607   1.075       .  S
C1603      C1604   1.412       .  A
C1604      N1605   1.437       .  S
N1605      H1609   1.045       .  S
N1605      H1610   1.046       .  S
N1608      H1611   1.046       .  S
N1608      H1612   1.046       .  S
C1613      C1614   1.401       .  A
C1613      C1618   1.397       .  A
C1613      H1620   1.074       .  S
C1614      C1615   1.416       .  A
C1615      C1616   1.406       .  A
C1615      N1622   1.437       .  S
C1616      C1617   1.408       .  A
C1616      H1621   1.082       .  S
C1617      C1618   1.416       .  A
C1618      N1619   1.431       .  S
N1619      H1623   1.046       .  S
N1619      H1624   1.046       .  S
N1622      H1625   1.046       .  S
N1622      H1626   1.045       .  S
C1627      C1628   1.400       .  A
C1627      C1632   1.407       .  A
C1627      H1634   1.084       .  S
C1628      C1629   1.409       .  A
C1629      C1630   1.403       .  A
C1629      N1636   1.438       .  S
C1630      C1631   1.400       .  A
C1630      H1635   1.080       .  S
C1631      C1632   1.410       .  A
C1632      N1633   1.437       .  S
N1633      H1637   1.046       .  S
N1633      H1638   1.044       .  S
N1636      H1639   1.045       .  S
N1636      H1640   1.046       .  S
C1641      C1642   1.405       .  A
C1641      C1646   1.410       .  A
C1641      H1648   1.083       .  S
C1642      C1643   1.409       .  A
C1643      C1644   1.399       .  A
C1643      N1650   1.438       .  S
C1644      C1645   1.403       .  A
C1644      H1649   1.079       .  S
C1645      C1646   1.416       .  A
C1646      N1647   1.438       .  S
N1647      H1651   1.045       .  S
N1647      H1652   1.046       .  S
N1650      H1653   1.045       .  S
N1650      H1654   1.045       .  S
C1655      C1656   1.410       .  A
C1655      C1660   1.412       .  A
C1655      H1662   1.083       .  S
C1656      C1657   1.416       .  A
C1657      C1658   1.401       .  A
C1657      N1664   1.430       .  S
C1658      C1659   1.402       .  A
C1658      H1663   1.083       .  S
C1659      C1660   1.412       .  A
C1660      N1661   1.432       .  S
N1661      H1665   1.046       .  S
N1661      H1666   1.046       .  S
N1664      H1667   1.046       .  S
N1664      H1668   1.046       .  S
C1669      C1670   1.403       .  A
C1669      C1674   1.405       .  A
C1669      H1676   1.084       .  S
C1670      C1671   1.413       .  A
C1671      C1672   1.406       .  A
C1671      N1678   1.438       .  S
C1672      C1673   1.405       .  A
C1672      H1677   1.083       .  S
C1673      C1674   1.412       .  A
C1674      N1675   1.431       .  S
N1675      H1679   1.045       .  S
N1675      H1680   1.046       .  S
N1678      H1681   1.045       .  S
N1678      H1682   1.046       .  S
C1683      C1684   1.402       .  A
C1683      C1688   1.400       .  A
C1683      H1690   1.084       .  S
C1684      C1685   1.412       .  A
C1685      C1686   1.398       .  A
C1685      N1692   1.432       .  S
C1686      C1687   1.402       .  A
C1686      H1691   1.084       .  S
C1687      C1688   1.408       .  A
C1688      N1689   1.438       .  S
N1689      H1693   1.046       .  S
N1689      H1694   1.046       .  S
N1692      H1695   1.046       .  S
N1692      H1696   1.044       .  S
C1697      C1698   1.404       .  A
C1697      C1702   1.399       .  A
C1697      H1704   1.084       .  S
C1698      C1699   1.419       .  A
C1699      C1700   1.403       .  A
C1699      N1706   1.439       .  S
C1700      C1701   1.402       .  A
C1700      H1705   1.084       .  S
C1701      C1702   1.408       .  A
C1702      N1703   1.433       .  S
N1703      H1707   1.046       .  S
N1703      H1708   1.046       .  S
N1706      H1709   1.041       .  S
N1706      H1710   1.046       .  S
C1711      C1712   1.401       .  A
C1711      C1716   1.402       .  A
C1711      H1718   1.084       .  S
C1712      C1713   1.410       .  A
C1713      C1714   1.407       .  A
C1713      N1720   1.437       .  S
C1714      C1715   1.402       .  A
C1714      H1719   1.084       .  S
C1715      C1716   1.411       .  A
C1716      N1717   1.438       .  S
N1717      H1721   1.046       .  S
N1717      H1722   1.046       .  S
N1720      H1723   1.046       .  S
N1720      H1724   1.046       .  S
C1725      C1726   1.405       .  A
C1725      C1730   1.406       .  A
C1725      H1732   1.083       .  S
C1726      C1727   1.414       .  A
C1727      C1728   1.399       .  A
C1727      N1734   1.431       .  S
C1728      C1729   1.398       .  A
C1728      H1733   1.084       .  S
C1729      C1730   1.412       .  A
C1730      N1731   1.438       .  S
N1731      H1735   1.046       .  S
N1731      H1736   1.046       .  S
N1734      H1737   1.044       .  S
N1734      H1738   1.046       .  S
C1739      C1740   1.399       .  A
C1739      C1744   1.398       .  A
C1739      H1746   1.084       .  S
C1740      C1741   1.416       .  A
C1741      C1742   1.398       .  A
C1741      N1748   1.439       .  S
C1742      C1743   1.399       .  A
C1742      H1747   1.084       .  S
C1743      C1744   1.413       .  A
C1744      N1745   1.438       .  S
N1745      H1749   1.046       .  S
N1745      H1750   1.043       .  S
N1748      H1751   1.043       .  S
N1748      H1752   1.044       .  S
C1753      C1754   1.544       .  S
C1753      C1759   1.535       .  S
C1753      C1757   1.534       .  S
C1753      C1876   1.504       .  S
C1754      H1761   1.086       .  S
C1754      C1755   1.372       .  D
C1755      C1756   1.536       .  S
C1755      C2018   1.489       .  S
C1756      C1760   1.531       .  S
C1756      C1758   1.535       .  S
C1756      H1762   1.109       .  S
C1757      H1763   1.086       .  S
C1757      C1758   1.366       .  D
C1758      C2004   1.478       .  S
C1759      H1764   1.087       .  S
C1759      C1760   1.357       .  D
C1760      C2032   1.467       .  S
C1765      C1766   1.535       .  S
C1765      C1771   1.536       .  S
C1765      C1769   1.533       .  S
C1765      C1859   1.497       .  S
C1766      H1773   1.086       .  S
C1766      C1767   1.364       .  D
C1767      C1768   1.535       .  S
C1767      C1993   1.479       .  S
C1768      C1772   1.536       .  S
C1768      C1770   1.534       .  S
C1768      H1774   1.111       .  S
C1769      H1775   1.086       .  S
C1769      C1770   1.365       .  D
C1770      C1976   1.473       .  S
C1771      H1776   1.086       .  S
C1771      C1772   1.364       .  D
C1772      C2021   1.481       .  S
C1777      C1778   1.533       .  S
C1777      C1783   1.536       .  S
C1777      C1781   1.542       .  S
C1777      C1862   1.509       .  S
C1778      H1785   1.087       .  S
C1778      C1779   1.356       .  D
C1779      C1780   1.537       .  S
C1779      C2035   1.468       .  S
C1780      C1784   1.541       .  S
C1780      C1782   1.548       .  S
C1780      H1786   1.105       .  S
C1781      H1787   1.086       .  S
C1781      C1782   1.377       .  D
C1782      C1948   1.505       .  S
C1783      H1788   1.086       .  S
C1783      C1784   1.365       .  D
C1784      C1965   1.492       .  S
C1789      C1790   1.541       .  S
C1789      C1795   1.535       .  S
C1789      C1793   1.537       .  S
C1789      C1873   1.507       .  S
C1790      H1797   1.086       .  S
C1790      C1791   1.367       .  D
C1791      C1792   1.536       .  S
C1791      C1962   1.487       .  S
C1792      C1796   1.535       .  S
C1792      C1794   1.542       .  S
C1792      H1798   1.110       .  S
C1793      C1794   1.369       .  D
C1794      C1934   1.487       .  S
C1795      H1800   1.086       .  S
C1795      C1796   1.363       .  D
C1796      C1990   1.481       .  S
C1801      C1802   1.536       .  S
C1801      C1807   1.541       .  S
C1801      C1805   1.534       .  S
C1801      C1874   1.505       .  S
C1802      H1809   1.086       .  S
C1802      C1803   1.358       .  D
C1803      C1804   1.537       .  S
C1803      C1920   1.475       .  S
C1804      C1808   1.541       .  S
C1804      C1806   1.536       .  S
C1804      H1810   1.103       .  S
C1805      H1811   1.086       .  S
C1805      C1806   1.364       .  D
C1806      C2007   1.480       .  S
C1807      H1812   1.085       .  S
C1807      C1808   1.375       .  D
C1808      C1909   1.501       .  S
C1813      C1814   1.538       .  S
C1813      C1819   1.536       .  S
C1813      C1817   1.531       .  S
C1813      C1861   1.500       .  S
C1814      H1821   1.084       .  S
C1814      C1815   1.369       .  D
C1815      C1816   1.544       .  S
C1815      C1906   1.498       .  S
C1816      C1820   1.543       .  S
C1816      C1818   1.534       .  S
C1816      H1822   1.109       .  S
C1817      H1823   1.087       .  S
C1817      C1818   1.362       .  D
C1818      C1979   1.471       .  S
C1819      H1824   1.086       .  S
C1819      C1820   1.365       .  D
C1820      C1895   1.486       .  S
C1825      C1826   1.536       .  S
C1825      C1831   1.540       .  S
C1825      C1829   1.544       .  S
C1825      C1860   1.509       .  S
C1826      H1833   1.087       .  S
C1826      C1827   1.356       .  D
C1827      C1828   1.531       .  S
C1827      C1878   1.469       .  S
C1828      C1832   1.534       .  S
C1828      C1830   1.545       .  S
C1828      H1834   1.110       .  S
C1829      H1835   1.085       .  S
C1829      C1830   1.376       .  D
C1830      C1951   1.498       .  S
C1831      H1836   1.086       .  S
C1831      C1832   1.362       .  D
C1832      C1923   1.477       .  S
C1837      C1838   1.543       .  S
C1837      C1843   1.533       .  S
C1837      C1841   1.536       .  S
C1837      C1875   1.503       .  S
C1838      H1845   1.086       .  S
C1838      C1839   1.368       .  D
C1839      C1840   1.538       .  S
C1839      C1892   1.489       .  S
C1840      C1844   1.538       .  S
C1840      C1842   1.542       .  S
C1840      H1846   1.109       .  S
C1841      C1842   1.371       .  D
C1842      C1937   1.492       .  S
C1843      H1848   1.087       .  S
C1843      C1844   1.354       .  D
C1844      C1881   1.471       .  S
O1849      C1859   1.277       .  A
O1850      C1860   1.279       .  A
O1850     Cu2149   2.010   1_654  S
O1851      C1861   1.277       .  A
O1852      C1862   1.278       .  A
O1852     Cu1857   2.010   1_655  S
O1853      C1862   1.279       .  A
O1853     Cu1858   2.006   1_655  S
O1854      C1861   1.278       .  A
O1855      C1860   1.278       .  A
O1855     Cu2150   2.007   1_654  S
O1856      C1859   1.277       .  A
Cu1857     O2142   2.010   1_455  S
Cu1857    Cu1858   2.373       .  S
Cu1858     O2147   2.007   1_455  S
O1863     Cu1871   2.000       .  S
O1864      C1874   1.276       .  A
O1864     Cu2163   1.992   1_554  S
O1865     Cu2163   2.003   1_554  S
O1866      C1876   1.278       .  A
O1866     Cu1871   2.000       .  S
O1867      C1876   1.277       .  A
O1867     Cu1872   2.011       .  S
O1868     Cu2164   2.004   1_554  S
O1869      C1874   1.280       .  A
O1869     Cu2164   2.019   1_554  S
O1870     Cu1872   2.019       .  S
Cu1871     O2156   1.992       .  S
Cu1871     O2157   2.003       .  S
Cu1871    Cu1872   2.372       .  S
Cu1872     O2160   2.004       .  S
Cu1872     O2161   2.019       .  S
C1877      C1878   1.400       .  A
C1877      C1882   1.404       .  A
C1877      H1884   1.084       .  S
C1878      C1879   1.407       .  A
C1879      C1880   1.403       .  A
C1879      N1886   1.437       .  S
C1880      C1881   1.400       .  A
C1880      H1885   1.083       .  S
C1881      C1882   1.408       .  A
C1882      N1883   1.438       .  S
N1883      H1887   1.046       .  S
N1883      H1888   1.040       .  S
N1886      H1889   1.046   1_554  S
N1886      H1890   1.046       .  S
C1891      C1892   1.407       .  A
C1891      C1896   1.411       .  A
C1891      H1898   1.083       .  S
C1892      C1893   1.409       .  A
C1893      C1894   1.398       .  A
C1893      N1900   1.430       .  S
C1894      C1895   1.397       .  A
C1894      H1899   1.075       .  S
C1895      C1896   1.412       .  A
C1896      N1897   1.437       .  S
N1897      H1901   1.045       .  S
N1897      H1902   1.046       .  S
N1900      H1903   1.046       .  S
N1900      H1904   1.046       .  S
C1905      C1906   1.401       .  A
C1905      C1910   1.397       .  A
C1905      H1912   1.074       .  S
C1906      C1907   1.416       .  A
C1907      C1908   1.406       .  A
C1907      N1914   1.437       .  S
C1908      C1909   1.408       .  A
C1908      H1913   1.082       .  S
C1909      C1910   1.416       .  A
C1910      N1911   1.431       .  S
N1911      H1915   1.046       .  S
N1911      H1916   1.046       .  S
N1914      H1917   1.046       .  S
N1914      H1918   1.045       .  S
C1919      C1920   1.400       .  A
C1919      C1924   1.407       .  A
C1919      H1926   1.084       .  S
C1920      C1921   1.409       .  A
C1921      C1922   1.403       .  A
C1921      N1928   1.438       .  S
C1922      C1923   1.400       .  A
C1922      H1927   1.080       .  S
C1923      C1924   1.410       .  A
C1924      N1925   1.437       .  S
N1925      H1929   1.046       .  S
N1925      H1930   1.044       .  S
N1928      H1931   1.045       .  S
N1928      H1932   1.046       .  S
C1933      C1934   1.405       .  A
C1933      C1938   1.410       .  A
C1933      H1940   1.083       .  S
C1934      C1935   1.409       .  A
C1935      C1936   1.399       .  A
C1935      N1942   1.438       .  S
C1936      C1937   1.403       .  A
C1936      H1941   1.079       .  S
C1937      C1938   1.416       .  A
C1938      N1939   1.438       .  S
N1939      H1943   1.045   1_565  S
N1939      H1944   1.046       .  S
N1942      H1945   1.045       .  S
N1942      H1946   1.045       .  S
C1947      C1948   1.410       .  A
C1947      C1952   1.412       .  A
C1947      H1954   1.083       .  S
C1948      C1949   1.416       .  A
C1949      C1950   1.401       .  A
C1949      N1956   1.430       .  S
C1950      C1951   1.402       .  A
C1950      H1955   1.083       .  S
C1951      C1952   1.412       .  A
C1952      N1953   1.432       .  S
N1953      H1957   1.046       .  S
N1953      H1958   1.046       .  S
N1956      H1959   1.046       .  S
N1956      H1960   1.046       .  S
C1961      C1962   1.403       .  A
C1961      C1966   1.405       .  A
C1961      H1968   1.084       .  S
C1962      C1963   1.413       .  A
C1963      C1964   1.406       .  A
C1963      N1970   1.438       .  S
C1964      C1965   1.405       .  A
C1964      H1969   1.083       .  S
C1965      C1966   1.412       .  A
C1966      N1967   1.431       .  S
N1967      H1971   1.045       .  S
N1967      H1972   1.046       .  S
N1970      H1973   1.045       .  S
N1970      H1974   1.046       .  S
C1975      C1976   1.402       .  A
C1975      C1980   1.400       .  A
C1975      H1982   1.084       .  S
C1976      C1977   1.412       .  A
C1977      C1978   1.398       .  A
C1977      N1984   1.432       .  S
C1978      C1979   1.402       .  A
C1978      H1983   1.084       .  S
C1979      C1980   1.408       .  A
C1980      N1981   1.438       .  S
N1981      H1985   1.046       .  S
N1981      H1986   1.046       .  S
N1984      H1987   1.046       .  S
N1984      H1988   1.044       .  S
C1989      C1990   1.404       .  A
C1989      C1994   1.399       .  A
C1989      H1996   1.084       .  S
C1990      C1991   1.419       .  A
C1991      C1992   1.403       .  A
C1991      N1998   1.439       .  S
C1992      C1993   1.402       .  A
C1992      H1997   1.084       .  S
C1993      C1994   1.408       .  A
C1994      N1995   1.433       .  S
N1995      H1999   1.046       .  S
N1995      H2000   1.046       .  S
N1998      H2001   1.041       .  S
N1998      H2002   1.046       .  S
C2003      C2004   1.401       .  A
C2003      C2008   1.402       .  A
C2003      H2010   1.084       .  S
C2004      C2005   1.410       .  A
C2005      C2006   1.407       .  A
C2005      N2012   1.437       .  S
C2006      C2007   1.402       .  A
C2006      H2011   1.084       .  S
C2007      C2008   1.411       .  A
C2008      N2009   1.438       .  S
N2009      H2013   1.046       .  S
N2009      H2014   1.046       .  S
N2012      H2015   1.046       .  S
N2012      H2016   1.046       .  S
C2017      C2018   1.405       .  A
C2017      C2022   1.406       .  A
C2017      H2024   1.083       .  S
C2018      C2019   1.414       .  A
C2019      C2020   1.399       .  A
C2019      N2026   1.431       .  S
C2020      C2021   1.398       .  A
C2020      H2025   1.084       .  S
C2021      C2022   1.412       .  A
C2022      N2023   1.438       .  S
N2023      H2027   1.046       .  S
N2023      H2028   1.046       .  S
N2026      H2029   1.044       .  S
N2026      H2030   1.046       .  S
C2031      C2032   1.399       .  A
C2031      C2036   1.398       .  A
C2031      H2038   1.084       .  S
C2032      C2033   1.416       .  A
C2033      C2034   1.398       .  A
C2033      N2040   1.439       .  S
C2034      C2035   1.399       .  A
C2034      H2039   1.084       .  S
C2035      C2036   1.413       .  A
C2036      N2037   1.438       .  S
N2037      H2041   1.046       .  S
N2037      H2042   1.043       .  S
N2040      H2043   1.043       .  S
N2040      H2044   1.044       .  S
C2045      C2046   1.544       .  S
C2045      C2051   1.535       .  S
C2045      C2049   1.534       .  S
C2045      C2168   1.504       .  S
C2046      H2053   1.086       .  S
C2046      C2047   1.372       .  D
C2047      C2048   1.536       .  S
C2047      C2310   1.489       .  S
C2048      C2052   1.531       .  S
C2048      C2050   1.535       .  S
C2048      H2054   1.109       .  S
C2049      H2055   1.086       .  S
C2049      C2050   1.366       .  D
C2050      C2296   1.478       .  S
C2051      H2056   1.087       .  S
C2051      C2052   1.357       .  D
C2052      C2324   1.467       .  S
C2057      C2058   1.535       .  S
C2057      C2063   1.536       .  S
C2057      C2061   1.533       .  S
C2057      C2151   1.497       .  S
C2058      H2065   1.086       .  S
C2058      C2059   1.364       .  D
C2059      C2060   1.535       .  S
C2059      C2285   1.479       .  S
C2060      C2064   1.536       .  S
C2060      C2062   1.534       .  S
C2060      H2066   1.111       .  S
C2061      H2067   1.086       .  S
C2061      C2062   1.365       .  D
C2062      C2268   1.473       .  S
C2063      H2068   1.086       .  S
C2063      C2064   1.364       .  D
C2064      C2313   1.481       .  S
C2069      C2070   1.533       .  S
C2069      C2075   1.536       .  S
C2069      C2073   1.542       .  S
C2069      C2154   1.509       .  S
C2070      H2077   1.087       .  S
C2070      C2071   1.356       .  D
C2071      C2072   1.537       .  S
C2071      C2327   1.468       .  S
C2072      C2076   1.541       .  S
C2072      C2074   1.548       .  S
C2072      H2078   1.105       .  S
C2073      H2079   1.086       .  S
C2073      C2074   1.377       .  D
C2074      C2240   1.505       .  S
C2075      H2080   1.086       .  S
C2075      C2076   1.365       .  D
C2076      C2257   1.492       .  S
C2081      C2082   1.541       .  S
C2081      C2087   1.535       .  S
C2081      C2085   1.537       .  S
C2081      C2165   1.507       .  S
C2082      H2089   1.086       .  S
C2082      C2083   1.367       .  D
C2083      C2084   1.536       .  S
C2083      C2254   1.487       .  S
C2084      C2088   1.535       .  S
C2084      C2086   1.542       .  S
C2084      H2090   1.110       .  S
C2085      C2086   1.369       .  D
C2086      C2226   1.487       .  S
C2087      H2092   1.086       .  S
C2087      C2088   1.363       .  D
C2088      C2282   1.481       .  S
C2093      C2094   1.536       .  S
C2093      C2099   1.541       .  S
C2093      C2097   1.534       .  S
C2093      C2166   1.505       .  S
C2094      H2101   1.086       .  S
C2094      C2095   1.358       .  D
C2095      C2096   1.537       .  S
C2095      C2212   1.475       .  S
C2096      C2100   1.541       .  S
C2096      C2098   1.536       .  S
C2096      H2102   1.103       .  S
C2097      H2103   1.086       .  S
C2097      C2098   1.364       .  D
C2098      C2299   1.480       .  S
C2099      H2104   1.085       .  S
C2099      C2100   1.375       .  D
C2100      C2201   1.501       .  S
C2105      C2106   1.538       .  S
C2105      C2111   1.536       .  S
C2105      C2109   1.531       .  S
C2105      C2153   1.500       .  S
C2106      H2113   1.084       .  S
C2106      C2107   1.369       .  D
C2107      C2108   1.544       .  S
C2107      C2198   1.498       .  S
C2108      C2112   1.543       .  S
C2108      C2110   1.534       .  S
C2108      H2114   1.109       .  S
C2109      H2115   1.087       .  S
C2109      C2110   1.362       .  D
C2110      C2271   1.471       .  S
C2111      H2116   1.086       .  S
C2111      C2112   1.365       .  D
C2112      C2187   1.486       .  S
C2117      C2118   1.536       .  S
C2117      C2123   1.540       .  S
C2117      C2121   1.544       .  S
C2117      C2152   1.509       .  S
C2118      H2125   1.087       .  S
C2118      C2119   1.356       .  D
C2119      C2120   1.531       .  S
C2119      C2170   1.469       .  S
C2120      C2124   1.534       .  S
C2120      C2122   1.545       .  S
C2120      H2126   1.110       .  S
C2121      H2127   1.085       .  S
C2121      C2122   1.376       .  D
C2122      C2243   1.498       .  S
C2123      H2128   1.086       .  S
C2123      C2124   1.362       .  D
C2124      C2215   1.477       .  S
C2129      C2130   1.543       .  S
C2129      C2135   1.533       .  S
C2129      C2133   1.536       .  S
C2129      C2167   1.503       .  S
C2130      H2137   1.086       .  S
C2130      C2131   1.368       .  D
C2131      C2132   1.538       .  S
C2131      C2184   1.489       .  S
C2132      C2136   1.538       .  S
C2132      C2134   1.542       .  S
C2132      H2138   1.109       .  S
C2133      C2134   1.371       .  D
C2134      C2229   1.492       .  S
C2135      H2140   1.087       .  S
C2135      C2136   1.354       .  D
C2136      C2173   1.471       .  S
O2141      C2151   1.277       .  A
O2142      C2152   1.279       .  A
O2143      C2153   1.277       .  A
O2144      C2154   1.278       .  A
O2144     Cu2149   2.010   1_655  S
O2145      C2154   1.279       .  A
O2145     Cu2150   2.006   1_655  S
O2146      C2153   1.278       .  A
O2147      C2152   1.278       .  A
O2148      C2151   1.277       .  A
Cu2149    Cu2150   2.373       .  S
O2155     Cu2163   2.000       .  S
O2156      C2166   1.276       .  A
O2158      C2168   1.278       .  A
O2158     Cu2163   2.000       .  S
O2159      C2168   1.277       .  A
O2159     Cu2164   2.011       .  S
O2161      C2166   1.280       .  A
O2162     Cu2164   2.019       .  S
Cu2163    Cu2164   2.372       .  S
C2169      C2170   1.400       .  A
C2169      C2174   1.404       .  A
C2169      H2176   1.084       .  S
C2170      C2171   1.407       .  A
C2171      C2172   1.403       .  A
C2171      N2178   1.437       .  S
C2172      C2173   1.400       .  A
C2172      H2177   1.083       .  S
C2173      C2174   1.408       .  A
C2174      N2175   1.438       .  S
N2175      H2179   1.046       .  S
N2175      H2180   1.040       .  S
N2178      H2181   1.046       .  S
N2178      H2182   1.046       .  S
C2183      C2184   1.407       .  A
C2183      C2188   1.411       .  A
C2183      H2190   1.083       .  S
C2184      C2185   1.409       .  A
C2185      C2186   1.398       .  A
C2185      N2192   1.430       .  S
C2186      C2187   1.397       .  A
C2186      H2191   1.075       .  S
C2187      C2188   1.412       .  A
C2188      N2189   1.437       .  S
N2189      H2193   1.045       .  S
N2189      H2194   1.046       .  S
N2192      H2195   1.046       .  S
N2192      H2196   1.046       .  S
C2197      C2198   1.401       .  A
C2197      C2202   1.397       .  A
C2197      H2204   1.074       .  S
C2198      C2199   1.416       .  A
C2199      C2200   1.406       .  A
C2199      N2206   1.437       .  S
C2200      C2201   1.408       .  A
C2200      H2205   1.082       .  S
C2201      C2202   1.416       .  A
C2202      N2203   1.431       .  S
N2203      H2207   1.046       .  S
N2203      H2208   1.046       .  S
N2206      H2209   1.046       .  S
N2206      H2210   1.045       .  S
C2211      C2212   1.400       .  A
C2211      C2216   1.407       .  A
C2211      H2218   1.084       .  S
C2212      C2213   1.409       .  A
C2213      C2214   1.403       .  A
C2213      N2220   1.438       .  S
C2214      C2215   1.400       .  A
C2214      H2219   1.080       .  S
C2215      C2216   1.410       .  A
C2216      N2217   1.437       .  S
N2217      H2221   1.046       .  S
N2217      H2222   1.044       .  S
N2220      H2223   1.045       .  S
N2220      H2224   1.046       .  S
C2225      C2226   1.405       .  A
C2225      C2230   1.410       .  A
C2225      H2232   1.083       .  S
C2226      C2227   1.409       .  A
C2227      C2228   1.399       .  A
C2227      N2234   1.438       .  S
C2228      C2229   1.403       .  A
C2228      H2233   1.079       .  S
C2229      C2230   1.416       .  A
C2230      N2231   1.438       .  S
N2231      H2235   1.045   1_565  S
N2231      H2236   1.046       .  S
N2234      H2237   1.045       .  S
N2234      H2238   1.045       .  S
C2239      C2240   1.410       .  A
C2239      C2244   1.412       .  A
C2239      H2246   1.083       .  S
C2240      C2241   1.416       .  A
C2241      C2242   1.401       .  A
C2241      N2248   1.430       .  S
C2242      C2243   1.402       .  A
C2242      H2247   1.083       .  S
C2243      C2244   1.412       .  A
C2244      N2245   1.432       .  S
N2245      H2249   1.046       .  S
N2245      H2250   1.046       .  S
N2248      H2251   1.046       .  S
N2248      H2252   1.046       .  S
C2253      C2254   1.403       .  A
C2253      C2258   1.405       .  A
C2253      H2260   1.084       .  S
C2254      C2255   1.413       .  A
C2255      C2256   1.406       .  A
C2255      N2262   1.438       .  S
C2256      C2257   1.405       .  A
C2256      H2261   1.083       .  S
C2257      C2258   1.412       .  A
C2258      N2259   1.431       .  S
N2259      H2263   1.045       .  S
N2259      H2264   1.046       .  S
N2262      H2265   1.045       .  S
N2262      H2266   1.046       .  S
C2267      C2268   1.402       .  A
C2267      C2272   1.400       .  A
C2267      H2274   1.084       .  S
C2268      C2269   1.412       .  A
C2269      C2270   1.398       .  A
C2269      N2276   1.432       .  S
C2270      C2271   1.402       .  A
C2270      H2275   1.084       .  S
C2271      C2272   1.408       .  A
C2272      N2273   1.438       .  S
N2273      H2277   1.046       .  S
N2273      H2278   1.046       .  S
N2276      H2279   1.046       .  S
N2276      H2280   1.044       .  S
C2281      C2282   1.404       .  A
C2281      C2286   1.399       .  A
C2281      H2288   1.084       .  S
C2282      C2283   1.419       .  A
C2283      C2284   1.403       .  A
C2283      N2290   1.439       .  S
C2284      C2285   1.402       .  A
C2284      H2289   1.084       .  S
C2285      C2286   1.408       .  A
C2286      N2287   1.433       .  S
N2287      H2291   1.046       .  S
N2287      H2292   1.046       .  S
N2290      H2293   1.041       .  S
N2290      H2294   1.046       .  S
C2295      C2296   1.401       .  A
C2295      C2300   1.402       .  A
C2295      H2302   1.084       .  S
C2296      C2297   1.410       .  A
C2297      C2298   1.407       .  A
C2297      N2304   1.437       .  S
C2298      C2299   1.402       .  A
C2298      H2303   1.084       .  S
C2299      C2300   1.411       .  A
C2300      N2301   1.438       .  S
N2301      H2305   1.046       .  S
N2301      H2306   1.046       .  S
N2304      H2307   1.046       .  S
N2304      H2308   1.046       .  S
C2309      C2310   1.405       .  A
C2309      C2314   1.406       .  A
C2309      H2316   1.083       .  S
C2310      C2311   1.414       .  A
C2311      C2312   1.399       .  A
C2311      N2318   1.431       .  S
C2312      C2313   1.398       .  A
C2312      H2317   1.084       .  S
C2313      C2314   1.412       .  A
C2314      N2315   1.438       .  S
N2315      H2319   1.046       .  S
N2315      H2320   1.046       .  S
N2318      H2321   1.044       .  S
N2318      H2322   1.046       .  S
C2323      C2324   1.399       .  A
C2323      C2328   1.398       .  A
C2323      H2330   1.084       .  S
C2324      C2325   1.416       .  A
C2325      C2326   1.398       .  A
C2325      N2332   1.439       .  S
C2326      C2327   1.399       .  A
C2326      H2331   1.084       .  S
C2327      C2328   1.413       .  A
C2328      N2329   1.438       .  S
N2329      H2333   1.046       .  S
N2329      H2334   1.043       .  S
N2332      H2335   1.043       .  S
N2332      H2336   1.044       .  S
