geometry optimzed in LAMMPS
_audit_creation_date              2020-11-30 
_audit_creation_method            'lammps2cif' 
_symmetry_space_group_name_H-M    'P1' 
_symmetry_Int_Tables_number       1 
_symmetry_cell_setting            triclinic 
loop_ 
_symmetry_equiv_pos_as_xyz 
  x,y,z 
_cell_length_a                    46.56769465 
_cell_length_b                    47.191470493679795 
_cell_length_c                    41.2297194052032 
_cell_angle_alpha                 90.47139736602635 
_cell_angle_beta                  89.62709471908217 
_cell_angle_gamma                 89.77989543169849 
loop_ 
_atom_site_label 
_atom_site_type_symbol 
_atom_site_fract_x 
_atom_site_fract_y 
_atom_site_fract_z 
_atom_site_charge 
In1        In  0.45695374  0.86348477  0.41566330     1.36900
C2          C  0.42595633  0.84328616  0.36602554     0.78100
O3          O  0.46039418  0.90988128  0.40175795    -0.60400
O4          O  0.49721371  0.88302413  0.39896734    -0.51300
C5          C  0.43815456  0.87872393  0.47395805     0.70700
O6          O  0.42584337  0.85983195  0.45733207    -0.46100
C7          C  0.48881026  0.82123709  0.43758622     0.75500
O8          O  0.41444018  0.85685808  0.38920514    -0.58000
O9          O  0.49802585  0.83842780  0.41695122    -0.48100
O10         O  0.45277635  0.84137570  0.36802712    -0.54400
C11         C  0.48706793  0.90760279  0.39603403     0.85600
O12         O  0.45810498  0.89154449  0.45950492    -0.56300
O13         O  0.46330384  0.82530212  0.44657545    -0.59600
In14       In  0.45982030  0.59665787  0.41788930     1.36900
C15         C  0.42877610  0.61751590  0.36929053     0.78100
O16         O  0.46413385  0.63620560  0.44683856    -0.60400
O17         O  0.49869090  0.62457932  0.41547277    -0.51300
C18         C  0.44702160  0.58313204  0.47841136     0.70700
O19         O  0.47128880  0.57893489  0.46552886    -0.46100
C20         C  0.48658557  0.55022643  0.39740100     0.75500
O21         O  0.41703257  0.60527154  0.39309982    -0.58000
O22         O  0.49805706  0.57423145  0.39922321    -0.48100
O23         O  0.45571173  0.61798895  0.37048091    -0.54400
C24         C  0.48895474  0.64161174  0.43647193     0.85600
O25         O  0.42795562  0.59244506  0.45944150    -0.56300
O26         O  0.46013164  0.54971314  0.40452070    -0.59600
In27       In  0.44012932  0.88494804  0.26333716     1.36900
C28         C  0.42105044  0.84889775  0.30887987     0.78100
O29         O  0.48845435  0.88376984  0.27386428    -0.60400
O30         O  0.46479614  0.92184922  0.28077304    -0.51300
C31         C  0.44511051  0.87338803  0.20032539     0.70700
O32         O  0.42808778  0.85986493  0.21842928    -0.46100
C33         C  0.39808216  0.92247353  0.25665583     0.75500
O34         O  0.43745884  0.84054769  0.28617100    -0.58000
O35         O  0.41608577  0.92415642  0.27920952    -0.48100
O36         O  0.41530552  0.87486860  0.30787488    -0.54400
C37         C  0.48887239  0.90980805  0.28141607     0.85600
O38         O  0.46123415  0.89052588  0.21500549    -0.56300
O39         O  0.40168159  0.90187565  0.23752697    -0.59600
In40       In  0.17395288  0.87975078  0.27800481     1.36900
C41         C  0.19263100  0.84381209  0.32341304     0.78100
O42         O  0.20417277  0.90313407  0.24530972    -0.60400
O43         O  0.20542049  0.91249606  0.29555696    -0.51300
C44         C  0.16851785  0.86190993  0.21709428     0.70700
O45         O  0.19083410  0.85700103  0.23349299    -0.46100
C46         C  0.12744007  0.90902675  0.29586457     0.75500
O47         O  0.17860271  0.83494443  0.29929700    -0.58000
O48         O  0.15192074  0.91955118  0.29233665    -0.48100
O49         O  0.19579806  0.87015033  0.32402550    -0.54400
C50         C  0.21555494  0.91714085  0.26777930     0.85600
O51         O  0.14812176  0.87328212  0.23288355    -0.56300
O52         O  0.12626627  0.88259342  0.29108797    -0.59600
In53       In  0.43871376  0.57084947  0.26945623     1.36900
C54         C  0.42200454  0.61197323  0.31155105     0.78100
O55         O  0.41127680  0.53824600  0.24532604    -0.60400
O56         O  0.41362422  0.53798790  0.29673981    -0.51300
C57         C  0.44039031  0.58450205  0.20664088     0.70700
O58         O  0.41867417  0.58954832  0.22418437    -0.46100
C59         C  0.48744353  0.54451317  0.28543286     0.75500
O60         O  0.44792654  0.60726658  0.30412799    -0.58000
O61         O  0.46282415  0.53555128  0.29265301    -0.48100
O62         O  0.40469674  0.59788845  0.29473193    -0.54400
C63         C  0.40274271  0.52745786  0.27147752     0.85600
O64         O  0.46159398  0.57481166  0.22174437    -0.56300
O65         O  0.48761034  0.56828102  0.27154083    -0.59600
In66       In  0.18357599  0.56771323  0.27735289     1.36900
C67         C  0.19932918  0.60806666  0.31977663     0.78100
O68         O  0.13538360  0.56497099  0.28437775    -0.60400
O69         O  0.16158220  0.53078119  0.29983402    -0.51300
C70         C  0.17882586  0.58181389  0.21500380     0.70700
O71         O  0.19967746  0.58997078  0.23201782    -0.46100
C72         C  0.22224245  0.52647995  0.27750378     0.75500
O73         O  0.17347185  0.60364262  0.31234467    -0.58000
O74         O  0.21205693  0.53716086  0.30325034    -0.48100
O75         O  0.21695200  0.59440206  0.30249653    -0.54400
C76         C  0.13657870  0.54018345  0.29560059     0.85600
O77         O  0.15979947  0.56868657  0.23046654    -0.56300
O78         O  0.21176130  0.53604360  0.25170582    -0.59600
In79       In  0.15865721  0.85928663  0.42999858     1.36900
C80         C  0.18973953  0.83730588  0.38074580     0.78100
O81         O  0.15333299  0.82048284  0.45949841    -0.60400
O82         O  0.11761503  0.83422335  0.43194402    -0.51300
C83         C  0.17178806  0.87455780  0.49013252     0.70700
O84         O  0.18952848  0.86126643  0.47222062    -0.46100
C85         C  0.13156127  0.90360580  0.40608617     0.75500
O86         O  0.20132619  0.85179466  0.40302283    -0.58000
O87         O  0.12090753  0.87925914  0.40826876    -0.48100
O88         O  0.16309114  0.83448657  0.38420705    -0.54400
C89         C  0.12760711  0.81655245  0.45159041     0.85600
O90         O  0.14936807  0.88272189  0.47598030    -0.56300
O91         O  0.15751100  0.90553735  0.41475803    -0.59600
In92       In  0.16119370  0.59035773  0.42650526     1.36900
C93         C  0.19226652  0.61232969  0.37782126     0.78100
O94         O  0.16083895  0.54320346  0.41226923    -0.60400
O95         O  0.12347972  0.56847826  0.40652491    -0.51300
C96         C  0.17464015  0.57692914  0.48694495     0.70700
O97         O  0.19346725  0.58605058  0.46737776    -0.46100
C98         C  0.13106474  0.63514510  0.44605739     0.75500
O99         O  0.20401868  0.59927807  0.40093058    -0.58000
O100        O  0.12127871  0.61746690  0.42602434    -0.48100
O101        O  0.16533926  0.61299026  0.37964960    -0.54400
C102        C  0.13468345  0.54429352  0.40424183     0.85600
O103        O  0.15036081  0.57256369  0.47461948    -0.56300
O104        O  0.15625956  0.63028304  0.45534874    -0.59600
C105        C  0.41302635  0.63018160  0.34066220    -0.02000
C106        C  0.20795525  0.62563138  0.34923282    -0.02000
C107        C  0.20488299  0.82594625  0.35046947    -0.02000
C108        C  0.41023322  0.83107502  0.33701685    -0.02000
In109      In  0.94074647  0.38521385  0.41576497     1.36900
C110        C  0.92112722  0.34946231  0.37015545     0.78100
O111        O  0.90490108  0.40239987  0.44588171    -0.60400
O112        O  0.91347798  0.42240036  0.40099061    -0.51300
C113        C  0.94838009  0.37188372  0.47741036     0.70700
O114        O  0.92965081  0.35977826  0.46014483    -0.46100
C115        C  0.98848958  0.41123589  0.39733437     0.75500
O116        O  0.93620052  0.34068534  0.39342121    -0.58000
O117        O  0.96460282  0.42328761  0.40124489    -0.48100
O118        O  0.91698877  0.37575032  0.37060221    -0.54400
C119        C  0.89825373  0.42148147  0.42627101     0.85600
O120        O  0.96464224  0.38859432  0.46234209    -0.56300
O121        O  0.98829690  0.38474881  0.40177715    -0.59600
In122      In  0.67271010  0.37897465  0.41567026     1.36900
C123        C  0.69229692  0.34436695  0.36824080     0.78100
O124        O  0.62574739  0.38304597  0.40130756    -0.60400
O125        O  0.65174356  0.41983095  0.40514488    -0.51300
C126        C  0.66288211  0.36208756  0.47575024     0.70700
O127        O  0.68528992  0.35505494  0.46018961    -0.46100
C128        C  0.71483809  0.41479641  0.42820388     0.75500
O129        O  0.67794983  0.33470134  0.39171613    -0.58000
O130        O  0.70016176  0.41620540  0.40280079    -0.48100
O131        O  0.69509910  0.37076012  0.36915817    -0.54400
C132        C  0.62737295  0.40974254  0.39943155     0.85600
O133        O  0.64434302  0.37526352  0.45949347    -0.56300
O134        O  0.70797204  0.39521933  0.44719130    -0.59600
In135      In  0.96051335  0.36226197  0.26503325     1.36900
C136        C  0.92683006  0.34287827  0.31311918     0.78100
O137        O  0.96848959  0.32430152  0.23329883    -0.60400
O138        O  0.99950141  0.33403441  0.26893521    -0.51300
C139        C  0.94670189  0.37719528  0.20509720     0.70700
O140        O  0.93114487  0.36082981  0.22171859    -0.46100
C141        C  0.99013308  0.40587838  0.28771292     0.75500
O142        O  0.91643497  0.35655703  0.28969522    -0.58000
O143        O  0.00029147  0.38151913  0.28267239    -0.48100
O144        O  0.95361374  0.34009563  0.31168417    -0.54400
C145        C  0.99213909  0.31809474  0.24592624     0.85600
O146        O  0.96738984  0.38805145  0.22027641    -0.56300
O147        O  0.96354518  0.40842631  0.28203402    -0.59600
In148      In  0.96178730  0.09461067  0.26336039     1.36900
C149        C  0.92975805  0.11702481  0.31149797     0.78100
O150        O  0.96316435  0.04810967  0.27763159    -0.60400
O151        O  0.99867907  0.07484729  0.28770260    -0.51300
C152        C  0.95052697  0.07949529  0.20293484     0.70700
O153        O  0.93105752  0.08953750  0.22134853    -0.46100
C154        C  0.99222755  0.13776214  0.24203910     0.75500
O155        O  0.91870074  0.10178054  0.28951279    -0.58000
O156        O  0.00251657  0.11949473  0.26077134    -0.48100
O157        O  0.95639680  0.12027456  0.30837731    -0.54400
C158        C  0.98846203  0.05025269  0.28833992     0.85600
O159        O  0.97406494  0.07444615  0.21660090    -0.56300
O160        O  0.96619170  0.13442564  0.23490733    -0.59600
In161      In  0.65665054  0.36017669  0.26298215     1.36900
C162        C  0.68895024  0.33948123  0.31082800     0.78100
O163        O  0.65583608  0.40711512  0.27512984    -0.60400
O164        O  0.62020621  0.38125847  0.28786025    -0.51300
C165        C  0.66775166  0.37402779  0.20218035     0.70700
O166        O  0.68638857  0.36200970  0.21963315    -0.46100
C167        C  0.62650074  0.31620656  0.24303226     0.75500
O168        O  0.70003392  0.35372097  0.28810889    -0.58000
O169        O  0.61583812  0.33495068  0.26140432    -0.48100
O170        O  0.66218317  0.33681261  0.30877659    -0.54400
C171        C  0.63058354  0.40580813  0.28649986     0.85600
O172        O  0.64508329  0.38136197  0.21684949    -0.56300
O173        O  0.65249649  0.31962167  0.23565451    -0.59600
In174      In  0.66079024  0.09051594  0.25603633     1.36900
C175        C  0.69259469  0.11273042  0.30395727     0.78100
O176        O  0.65673317  0.13059981  0.22835187    -0.60400
O177        O  0.62049321  0.11638537  0.25522837    -0.51300
C178        C  0.67244456  0.07698700  0.19506924     0.70700
O179        O  0.69175308  0.08662311  0.21358081    -0.46100
C180        C  0.63333123  0.04548107  0.27872545     0.75500
O181        O  0.70381223  0.09803906  0.28134550    -0.58000
O182        O  0.62341861  0.07028957  0.27911657    -0.48100
O183        O  0.66578186  0.11511002  0.30192131    -0.54400
C184        C  0.63094178  0.13459491  0.23648921     0.85600
O185        O  0.64888079  0.07165160  0.20877989    -0.56300
O186        O  0.65891082  0.04334488  0.26839123    -0.59600
In187      In  0.94478731  0.07571402  0.41522533     1.36900
C188        C  0.92567562  0.11152848  0.36892890     0.78100
O189        O  0.99238858  0.07160522  0.40150827    -0.60400
O190        O  0.96709539  0.03469379  0.40672104    -0.51300
C191        C  0.95095301  0.09296254  0.47618733     0.70700
O192        O  0.92767177  0.09562127  0.46099070    -0.46100
C193        C  0.90272510  0.03893623  0.42486068     0.75500
O194        O  0.94083923  0.12032416  0.39217421    -0.58000
O195        O  0.91683036  0.03968328  0.39868962    -0.48100
O196        O  0.92158580  0.08529918  0.36952138    -0.54400
C197        C  0.99144513  0.04485200  0.40101843     0.85600
O198        O  0.97193242  0.08443884  0.45915625    -0.56300
O199        O  0.91064506  0.05632295  0.44622244    -0.59600
In200      In  0.67693869  0.07240912  0.40766393     1.36900
C201        C  0.69683509  0.10727391  0.36125323     0.78100
O202        O  0.71108931  0.05546021  0.44015293    -0.60400
O203        O  0.70460272  0.03439893  0.39528187    -0.51300
C204        C  0.66733459  0.08866766  0.46844779     0.70700
O205        O  0.68907060  0.09659298  0.45247885    -0.46100
C206        C  0.63092782  0.04383993  0.38924945     0.75500
O207        O  0.68161943  0.11649503  0.38452480    -0.58000
O208        O  0.65524359  0.03298785  0.39358295    -0.48100
O209        O  0.70095086  0.08101603  0.36203034    -0.54400
C210        C  0.71851190  0.03570788  0.42130111     0.85600
O211        O  0.64902107  0.07498393  0.45227360    -0.56300
O212        O  0.62971426  0.07039476  0.39340541    -0.59600
C213        C  0.70479527  0.32753521  0.33984829    -0.02000
C214        C  0.70845462  0.12466103  0.33317074    -0.02000
C215        C  0.91398227  0.12913876  0.34098308    -0.02000
C216        C  0.91014791  0.33159735  0.34207625    -0.02000
C217        C  0.91591338  0.20456198  0.36199716     0.20800
C218        C  0.90806778  0.22940933  0.37930147    -0.39000
C219        C  0.91387041  0.25533039  0.36371806     0.19800
C220        C  0.92651386  0.25623997  0.33333004     0.22500
C221        C  0.93425642  0.23155994  0.31611688    -0.39500
C222        C  0.92855685  0.20582758  0.33164746     0.21300
N223        N  0.91062935  0.17734866  0.37003809    -0.32800
C224        C  0.91992718  0.16105395  0.34460429    -0.10400
C225        C  0.93137391  0.17843229  0.32030187    -0.29200
N226        N  0.92805583  0.28300219  0.32264047    -0.45800
C227        C  0.91628866  0.29981627  0.34621998    -0.05100
C228        C  0.90715428  0.28309567  0.37232260    -0.22400
H229        H  0.89737496  0.22860573  0.40265608     0.19400
H230        H  0.94327167  0.23232516  0.29186929     0.18200
H231        H  0.93890475  0.17219140  0.29639632     0.14400
H232        H  0.89589407  0.29022470  0.39395273     0.14300
H233        H  0.90001095  0.17032398  0.39084577     0.32500
H234        H  0.93528346  0.28901303  0.29968379     0.35200
C235        C  0.78512600  0.11313712  0.34437351     0.20800
C236        C  0.80970389  0.10613751  0.36212143    -0.39000
C237        C  0.83596291  0.11484872  0.34884191     0.19800
C238        C  0.83778943  0.12954364  0.32007300     0.22500
C239        C  0.81304836  0.13670192  0.30224200    -0.39500
C240        C  0.78659729  0.12785874  0.31557025     0.21300
N241        N  0.75774251  0.10869394  0.35322594    -0.32800
C242        C  0.74108915  0.12073113  0.33008048    -0.10400
C243        C  0.75853610  0.13278371  0.30599283    -0.29200
N244        N  0.86538714  0.13610033  0.31342009    -0.45800
C245        C  0.88135373  0.12537787  0.33806077    -0.05100
C246        C  0.86338660  0.11210660  0.36068631    -0.22400
H247        H  0.80841672  0.09513408  0.38501879     0.19400
H248        H  0.81425214  0.14874084  0.28004942     0.18200
H249        H  0.75154459  0.14493923  0.28532676     0.14400
H250        H  0.86931094  0.10234238  0.38334746     0.14300
H251        H  0.75114253  0.09948752  0.37495986     0.32500
H252        H  0.87294660  0.14752009  0.29354272     0.35200
C253        C  0.83309578  0.34503721  0.34919633     0.20800
C254        C  0.80755800  0.35354956  0.36479160    -0.39000
C255        C  0.78200346  0.34459125  0.35010130     0.19800
C256        C  0.78172177  0.32851595  0.32194748     0.22500
C257        C  0.80734386  0.32009996  0.30622993    -0.39500
C258        C  0.83300949  0.32898376  0.32100032     0.21300
N259        N  0.86005908  0.34899239  0.35974047    -0.32800
C260        C  0.87764207  0.33536446  0.33813528    -0.10400
C261        C  0.86133599  0.32276183  0.31352728    -0.29200
N262        N  0.75460498  0.32126300  0.31416897    -0.45800
C263        C  0.73732203  0.33264275  0.33762799    -0.05100
C264        C  0.75400119  0.34741561  0.36043278    -0.22400
H265        H  0.80758874  0.36549025  0.38732948     0.19400
H266        H  0.80732664  0.30683122  0.28469751     0.18200
H267        H  0.86918035  0.30965296  0.29369079     0.14400
H268        H  0.74698071  0.35779857  0.38261127     0.14300
H269        H  0.86571853  0.35921627  0.38130887     0.32500
H270        H  0.74826331  0.30847662  0.29471884     0.35200
C271        C  0.69185360  0.20029516  0.32764823     0.20800
C272        C  0.68229499  0.22532744  0.31285908    -0.39000
C273        C  0.68966495  0.25081675  0.32858623     0.19800
C274        C  0.70557908  0.25153121  0.35673469     0.22500
C275        C  0.71513484  0.22642114  0.37158866    -0.39500
C276        C  0.70747244  0.20082818  0.35603942     0.21300
N277        N  0.68901539  0.17354612  0.31644309    -0.32800
C278        C  0.70279202  0.15654370  0.33792712    -0.10400
C279        C  0.71442017  0.17302602  0.36304874    -0.29200
N280        N  0.71159756  0.27856222  0.36531804    -0.45800
C281        C  0.69963767  0.29538784  0.34233922    -0.05100
C282        C  0.68552454  0.27846678  0.31922221    -0.22400
H283        H  0.67059493  0.22502657  0.29025176     0.19400
H284        H  0.72819273  0.22678170  0.39320409     0.18200
H285        H  0.72749009  0.16565753  0.38290671     0.14400
H286        H  0.67513266  0.28512657  0.29715443     0.14300
H287        H  0.67936069  0.16762756  0.29464152     0.32500
H288        H  0.72434573  0.28514641  0.38469872     0.35200
C289        C  0.83599301  0.01104966  0.44900524     0.20800
C290        C  0.81052930  0.01436416  0.46686098    -0.39000
C291        C  0.78512150  0.00931814  0.44989353     0.19800
C292        C  0.78504670  0.00090937  0.41756637     0.22500
C293        C  0.81059717  0.99680022  0.40000149    -0.39500
C294        C  0.83599742  0.00247022  0.41676495     0.21300
N295        N  0.86157478  0.02188967  0.45699751    -0.32800
C296        C  0.87761973  0.02095174  0.42953052    -0.10400
C297        C  0.86280248  0.00811589  0.40421912    -0.29200
N298        N  0.75903127  0.00510045  0.40458434    -0.45800
C299        C  0.74300112  0.01741549  0.42829731    -0.05100
C300        C  0.75807451  0.01918392  0.45725073    -0.22400
H301        H  0.81037182  0.02385365  0.49086509     0.19400
H302        H  0.81055362  0.99313737  0.37404469     0.18200
H303        H  0.86908212  0.00737459  0.37889620     0.14400
H304        H  0.75183117  0.03096227  0.47883771     0.14300
H305        H  0.86642062  0.03279170  0.47842559     0.32500
H306        H  0.75409289  0.00422866  0.37991100     0.35200
C307        C  0.68093137  0.09403045  0.05291391     0.20800
C308        C  0.69822228  0.09700962  0.08056353    -0.39000
C309        C  0.68663387  0.08627396  0.10947296     0.19800
C310        C  0.65991878  0.07355351  0.11050616     0.22500
C311        C  0.64265160  0.07065670  0.08297545    -0.39500
C312        C  0.65419699  0.08136675  0.05417760     0.21300
N313        N  0.68780158  0.10067112  0.02221546    -0.32800
C314        C  0.66543918  0.09189577  0.00381553    -0.10400
C315        C  0.64391298  0.08001957  0.02296230    -0.29200
N316        N  0.65300350  0.06640040  0.14091587    -0.45800
C317        C  0.67519653  0.07487371  0.15966799    -0.05100
C318        C  0.69683124  0.08715143  0.14090575    -0.22400
H319        H  0.71914898  0.10687826  0.07960179     0.19400
H320        H  0.62178557  0.06065552  0.08390903     0.18200
H321        H  0.62450233  0.06966882  0.01485923     0.14400
H322        H  0.71621994  0.09731019  0.14936901     0.14300
H323        H  0.70738919  0.10871537  0.01401102     0.32500
H324        H  0.63344384  0.05800423  0.14874218     0.35200
C325        C  0.59375153  0.19930204  0.23328291     0.20800
C326        C  0.58387462  0.22343725  0.24997444    -0.39000
C327        C  0.59148032  0.24947662  0.23644736     0.19800
C328        C  0.60714858  0.25126044  0.20778978     0.22500
C329        C  0.61618870  0.22717857  0.19057132    -0.39500
C330        C  0.60948180  0.20124547  0.20469163     0.21300
N331        N  0.59641658  0.17334171  0.24591655    -0.32800
C332        C  0.61493142  0.15934453  0.22608559    -0.10400
C333        C  0.62283138  0.17562609  0.19961976    -0.29200
N334        N  0.61841353  0.27713463  0.20464426    -0.45800
C335        C  0.61060880  0.29159963  0.23171584    -0.05100
C336        C  0.59290450  0.27553826  0.25159237    -0.22400
H337        H  0.57445693  0.22206786  0.27398739     0.19400
H338        H  0.63093772  0.22860217  0.17024074     0.18200
H339        H  0.63954146  0.17091028  0.18197696     0.14400
H340        H  0.58650311  0.28047232  0.27629864     0.14300
H341        H  0.58978029  0.16709088  0.26902789     0.32500
H342        H  0.63382313  0.28323042  0.18755657     0.35200
C343        C  0.96269205  0.07839777  0.11798491     0.20800
C344        C  0.97996898  0.07916328  0.09001391    -0.39000
C345        C  0.96615328  0.08761958  0.06159667     0.19800
C346        C  0.93728998  0.09468481  0.06109162     0.22500
C347        C  0.92002153  0.09406532  0.08916844    -0.39500
C348        C  0.93389697  0.08574056  0.11769248     0.21300
N349        N  0.97120720  0.07265780  0.14821143    -0.32800
C350        C  0.94792205  0.07688948  0.16756862    -0.10400
C351        C  0.92405933  0.08478677  0.14938054    -0.29200
N352        N  0.92884524  0.10002092  0.03064663    -0.45800
C353        C  0.95241760  0.09608889  0.01161545    -0.05100
C354        C  0.97620641  0.08866514  0.03012086    -0.22400
H355        H  0.00251500  0.07351147  0.09035848     0.19400
H356        H  0.89746733  0.09966790  0.08881668     0.18200
H357        H  0.90306738  0.09106297  0.15834856     0.14400
H358        H  0.99733486  0.08253359  0.02142671     0.14300
H359        H  0.99217771  0.06822605  0.15553288     0.32500
H360        H  0.90788642  0.10405393  0.02301347     0.35200
C361        C  0.01502283  0.25349555  0.21098812     0.20800
C362        C  0.00723420  0.22910700  0.19377100    -0.39000
C363        C  0.01443489  0.20338095  0.20813945     0.19800
C364        C  0.02977773  0.20193692  0.23683310     0.22500
C365        C  0.03871294  0.22641751  0.25333434    -0.39500
C366        C  0.03026435  0.25222187  0.23975997     0.21300
N367        N  0.00251796  0.27891096  0.20788269    -0.32800
C368        C  0.00893320  0.29353482  0.23517186    -0.10400
C369        C  0.02716360  0.27813424  0.25507344    -0.29200
N370        N  0.02704986  0.17619400  0.25005910    -0.45800
C371        C  0.00874628  0.16189900  0.23063663    -0.05100
C372        C  0.00126886  0.17767900  0.20367869    -0.22400
H373        H  0.99264850  0.23008299  0.17345824     0.19400
H374        H  0.04767942  0.22538492  0.27746245     0.18200
H375        H  0.03302572  0.28327236  0.27979463     0.14400
H376        H  0.98466288  0.17278085  0.18626511     0.14300
H377        H  0.98720806  0.28444552  0.19060342     0.32500
H378        H  0.03321574  0.17044899  0.27343339     0.35200
C379        C  0.65525005  0.37871713  0.11762058     0.20800
C380        C  0.63818080  0.38217566  0.08999771    -0.39000
C381        C  0.64909755  0.37009157  0.06126980     0.19800
C382        C  0.67505665  0.35571719  0.06014620     0.22500
C383        C  0.69210693  0.35225308  0.08779453    -0.39500
C384        C  0.68118415  0.36431082  0.11655105     0.21300
N385        N  0.64869333  0.38646342  0.14817745    -0.32800
C386        C  0.67036770  0.37657946  0.16681901    -0.10400
C387        C  0.69128258  0.36301734  0.14788713    -0.29200
N388        N  0.68180393  0.34831353  0.02950035    -0.45800
C389        C  0.66020416  0.35840393  0.01093073    -0.05100
C390        C  0.63915226  0.37167411  0.02995284    -0.22400
H391        H  0.61794121  0.39352627  0.09079809     0.19400
H392        H  0.71241951  0.34103960  0.08695589     0.18200
H393        H  0.70997160  0.35155791  0.15622451     0.14400
H394        H  0.62058131  0.38336183  0.02167242     0.14300
H395        H  0.62957675  0.39594920  0.15615119     0.32500
H396        H  0.70104439  0.33912905  0.02145380     0.35200
C397        C  0.95832099  0.38186540  0.06206945     0.20800
C398        C  0.96924124  0.39518455  0.08985879    -0.39000
C399        C  0.95556648  0.38839701  0.11913232     0.19800
C400        C  0.93274193  0.36974014  0.12064632     0.22500
C401        C  0.92171175  0.35649021  0.09274556    -0.39500
C402        C  0.93540509  0.36330657  0.06339623     0.21300
N403        N  0.96705267  0.38554612  0.03134069    -0.32800
C404        C  0.94948210  0.36943369  0.01282034    -0.10400
C405        C  0.92949549  0.35509411  0.03192041    -0.29200
N406        N  0.92496210  0.36525176  0.15165265    -0.45800
C407        C  0.94313026  0.38096515  0.16997020    -0.05100
C408        C  0.96229882  0.39593856  0.15048947    -0.22400
H409        H  0.98727208  0.40956264  0.08879384     0.19400
H410        H  0.90395761  0.34178840  0.09384682     0.18200
H411        H  0.91202670  0.34181676  0.02376076     0.14400
H412        H  0.98023212  0.40876788  0.15830167     0.14300
H413        H  0.98302904  0.39935084  0.02330927     0.32500
H414        H  0.90963161  0.35085900  0.15990632     0.35200
C415        C  0.83163009  0.44697904  0.45268413     0.20800
C416        C  0.80700028  0.44130496  0.47095511    -0.39000
C417        C  0.78100737  0.44400473  0.45466813     0.19800
C418        C  0.77948091  0.45251234  0.42259840     0.22500
C419        C  0.80415583  0.45880642  0.40447267    -0.39500
C420        C  0.83029941  0.45538637  0.42055336     0.21300
N421        N  0.85804910  0.43795398  0.45985208    -0.32800
C422        C  0.87328402  0.43945500  0.43194014    -0.10400
C423        C  0.85718709  0.45136052  0.40720079    -0.29200
N424        N  0.75355868  0.44658410  0.41037099    -0.45800
C425        C  0.73918820  0.43322395  0.43436976    -0.05100
C426        C  0.75514364  0.43211540  0.46264725    -0.22400
H427        H  0.80822062  0.43173962  0.49469523     0.19400
H428        H  0.80324496  0.46239399  0.37859496     0.18200
H429        H  0.86270760  0.45184922  0.38166043     0.14400
H430        H  0.75028017  0.42008819  0.48424137     0.14300
H431        H  0.86396177  0.42718656  0.48084759     0.32500
H432        H  0.74769647  0.44757406  0.38598442     0.35200
C433        C  0.28081526  0.84049095  0.33671189     0.20800
C434        C  0.30475054  0.84955787  0.31883512    -0.39000
C435        C  0.33161162  0.84249620  0.33162497     0.19800
C436        C  0.33454481  0.82756861  0.36010597     0.22500
C437        C  0.31047159  0.81845602  0.37809352    -0.39500
C438        C  0.28343772  0.82549377  0.36519660     0.21300
N439        N  0.25315512  0.84331695  0.32848320    -0.32800
C440        C  0.23750651  0.83008613  0.35184895    -0.10400
C441        C  0.25586919  0.81864215  0.37521781    -0.29200
N442        N  0.36250022  0.82234130  0.36601637    -0.45800
C443        C  0.37758805  0.83398296  0.34110077    -0.05100
C444        C  0.35873349  0.84674787  0.31918130    -0.22400
H445        H  0.30259174  0.86074121  0.29615209     0.19400
H446        H  0.31262524  0.80620475  0.40002338     0.18200
H447        H  0.24983362  0.80615634  0.39605989     0.14400
H448        H  0.36387676  0.85679797  0.29638860     0.14300
H449        H  0.24580590  0.85271100  0.30723524     0.32500
H450        H  0.37085085  0.81086452  0.38537394     0.35200
C451        C  0.20023242  0.69956902  0.32704353     0.20800
C452        C  0.20879209  0.72440977  0.31094232    -0.39000
C453        C  0.20175716  0.75015320  0.32664133     0.19800
C454        C  0.18732213  0.75093892  0.35603978     0.22500
C455        C  0.17880991  0.72621613  0.37205328    -0.39500
C456        C  0.18589447  0.70060048  0.35649526     0.21300
N457        N  0.20739742  0.67263836  0.31939385    -0.32800
C458        C  0.19824156  0.65637499  0.34452058    -0.10400
C459        C  0.18420837  0.67329959  0.36783394    -0.29200
N460        N  0.18550925  0.77756697  0.36757443    -0.45800
C461        C  0.19891876  0.79430653  0.34550318    -0.05100
C462        C  0.20917515  0.77778350  0.31944367    -0.22400
H463        H  0.22124422  0.72371155  0.28869055     0.19400
H464        H  0.16869872  0.72686112  0.39577178     0.18200
H465        H  0.17638872  0.66706783  0.39148920     0.14400
H466        H  0.22178275  0.78491583  0.29895404     0.14300
H467        H  0.22004559  0.66598792  0.29972239     0.32500
H468        H  0.17705206  0.78340050  0.39017858     0.35200
C469        C  0.41898513  0.70406774  0.31752393     0.20800
C470        C  0.41027420  0.72840813  0.30051462    -0.39000
C471        C  0.41571022  0.75463505  0.31582166     0.19800
C472        C  0.42883745  0.75634107  0.34572925     0.22500
C473        C  0.43722464  0.73208664  0.36285492    -0.39500
C474        C  0.43179188  0.70596518  0.34760480     0.21300
N475        N  0.41345994  0.67679683  0.30992326    -0.32800
C476        C  0.42223678  0.66105548  0.33556400    -0.10400
C477        C  0.43417712  0.67878905  0.35938022    -0.29200
N478        N  0.42987969  0.78334127  0.35622896    -0.45800
C479        C  0.41722343  0.79941292  0.33301080    -0.05100
C480        C  0.40808017  0.78201493  0.30736215    -0.22400
H481        H  0.39906092  0.72698101  0.27765394     0.19400
H482        H  0.44629797  0.73343696  0.38692737     0.18200
H483        H  0.44103045  0.67302347  0.38348778     0.14400
H484        H  0.39618166  0.78844180  0.28617881     0.14300
H485        H  0.40205726  0.66951165  0.28979739     0.32500
H486        H  0.43734503  0.78993580  0.37888170     0.35200
C487        C  0.33719540  0.61331664  0.35330296     0.20800
C488        C  0.31253990  0.59610530  0.35413811    -0.39000
C489        C  0.28606744  0.61054766  0.35659309     0.19800
C490        C  0.28449862  0.63975759  0.35853647     0.22500
C491        C  0.30902452  0.65685445  0.35813994    -0.39500
C492        C  0.33527468  0.64250163  0.35511004     0.21300
N493        N  0.36470218  0.60512445  0.34866789    -0.32800
C494        C  0.38042361  0.62932393  0.34673117    -0.10400
C495        C  0.36249749  0.65302020  0.35123737    -0.29200
N496        N  0.25714417  0.64862616  0.35784091    -0.45800
C497        C  0.24064509  0.62503722  0.35454963    -0.05100
C498        C  0.25814271  0.60073927  0.35473387    -0.22400
H499        H  0.31379927  0.57328512  0.35162901     0.19400
H500        H  0.30767675  0.67976327  0.35859512     0.18200
H501        H  0.36828169  0.67519566  0.35121599     0.14400
H502        H  0.25141930  0.57893875  0.35185943     0.14300
H503        H  0.37222923  0.58433967  0.34613698     0.32500
H504        H  0.25057434  0.66978835  0.35867255     0.35200
C505        C  0.07735977  0.49903124  0.38285248     0.20800
C506        C  0.04848211  0.49408117  0.37623940    -0.39000
C507        C  0.03904631  0.46649181  0.38116290     0.19800
C508        C  0.05684820  0.44504520  0.39191945     0.22500
C509        C  0.08604653  0.45011033  0.39895911    -0.39500
C510        C  0.09565774  0.47811355  0.39396526     0.21300
N511        N  0.09030853  0.52420894  0.38249891    -0.32800
C512        C  0.11701156  0.52001826  0.39418494    -0.10400
C513        C  0.12151018  0.49133535  0.40122113    -0.29200
N514        N  0.04154601  0.42118262  0.39686438    -0.45800
C515        C  0.01400286  0.42803557  0.38938872    -0.05100
C516        C  0.01183226  0.45594245  0.37924982    -0.22400
H517        H  0.03412041  0.51082528  0.36866625     0.19400
H518        H  0.09988927  0.43382785  0.40867002     0.18200
H519        H  0.14005130  0.48196427  0.41269996     0.14400
H520        H  0.99249791  0.46755276  0.37330098     0.14300
H521        H  0.08074055  0.54358943  0.37678912     0.32500
H522        H  0.04890579  0.40224134  0.40682309     0.35200
C523        C  0.03832161  0.98637805  0.38819441     0.20800
C524        C  0.04457646  0.95776681  0.38303223    -0.39000
C525        C  0.07317267  0.94996005  0.38734102     0.19800
C526        C  0.09418456  0.96897194  0.39664760     0.22500
C527        C  0.08787002  0.99791127  0.40183230    -0.39500
C528        C  0.05902714  0.00593880  0.39693961     0.21300
N529        N  0.01234211  0.99841863  0.38706844    -0.32800
C530        C  0.01609199  0.02597717  0.39506327    -0.10400
C531        C  0.04502391  0.03172451  0.40116758    -0.29200
N532        N  0.11913857  0.95523308  0.40206935    -0.45800
C533        C  0.11351622  0.92745919  0.39614084    -0.05100
C534        C  0.08528117  0.92356772  0.38641475    -0.22400
H535        H  0.02817830  0.94252282  0.37673070     0.19400
H536        H  0.10397142  0.01285243  0.40980656     0.18200
H537        H  0.05420930  0.05150769  0.40944451     0.14400
H538        H  0.07438201  0.90370784  0.38191607     0.14300
H539        H  0.99294466  0.98821158  0.38223446     0.32500
H540        H  0.13799893  0.96382693  0.41147541     0.35200
C541        C  0.09201401  0.75141495  0.45725497     0.20800
C542        C  0.08320390  0.72673734  0.44098080    -0.39000
C543        C  0.09311963  0.70110620  0.45380902     0.19800
C544        C  0.10997419  0.70019271  0.48140447     0.22500
C545        C  0.11776290  0.72467330  0.49836738    -0.39500
C546        C  0.10861708  0.75021766  0.48504539     0.21300
N547        N  0.09309879  0.77747658  0.44442549    -0.32800
C548        C  0.11148751  0.79225876  0.46332845    -0.10400
C549        C  0.12057710  0.77640579  0.48956021    -0.29200
N550        N  0.12303155  0.67499747  0.48381007    -0.45800
C551        C  0.11506006  0.66000031  0.45734794    -0.05100
C552        C  0.09558484  0.67506347  0.43861517    -0.22400
H553        H  0.07286247  0.72761069  0.41756595     0.19400
H554        H  0.13333095  0.72406718  0.51775017     0.18200
H555        H  0.13772901  0.78166245  0.50614778     0.14400
H556        H  0.08814590  0.66951825  0.41457316     0.14300
H557        H  0.08589075  0.78324490  0.42144882     0.32500
H558        H  0.13923642  0.66969011  0.50011959     0.35200
C559        C  0.16618892  0.57125455  0.07229845     0.20800
C560        C  0.15010245  0.56830208  0.10086497    -0.39000
C561        C  0.16369923  0.57687564  0.12942624     0.19800
C562        C  0.19131749  0.58759096  0.12970742     0.22500
C563        C  0.20749718  0.59060962  0.10093486    -0.39500
C564        C  0.19378652  0.58203794  0.07213542     0.21300
N565        N  0.15721716  0.56606962  0.04204018    -0.32800
C566        C  0.17893367  0.57387827  0.02207895    -0.10400
C567        C  0.20238017  0.58369767  0.03993747    -0.29200
N568        N  0.19973471  0.59279209  0.16040289    -0.45800
C569        C  0.17732834  0.58505256  0.17958228    -0.05100
C570        C  0.15443590  0.57529314  0.16105902    -0.22400
H571        H  0.12848762  0.55994167  0.10083346     0.19400
H572        H  0.22906456  0.59906991  0.10096296     0.18200
H573        H  0.22209435  0.59268730  0.03062792     0.14400
H574        H  0.13438252  0.56650775  0.16970624     0.14300
H575        H  0.13675821  0.55929639  0.03528547     0.32500
H576        H  0.21996996  0.59958714  0.16791447     0.35200
C577        C  0.08739258  0.48376798  0.30674406     0.20800
C578        C  0.07969315  0.45556523  0.31171189    -0.39000
C579        C  0.05081128  0.44920407  0.30665451     0.19800
C580        C  0.03086320  0.46918770  0.29697458     0.22500
C581        C  0.03872134  0.49757139  0.29153808    -0.39500
C582        C  0.06781388  0.50409769  0.29700705     0.21300
N583        N  0.11374323  0.49474259  0.30940925    -0.32800
C584        C  0.11130941  0.52227530  0.30097277    -0.10400
C585        C  0.08294303  0.52905185  0.29316329    -0.29200
N586        N  0.00517585  0.45686373  0.29169465    -0.45800
C587        C  0.00927865  0.42890982  0.29782951    -0.05100
C588        C  0.03727126  0.42358618  0.30770549    -0.22400
H589        H  0.09516770  0.43962262  0.31875264     0.19400
H590        H  0.02349322  0.51324989  0.28323151     0.18200
H591        H  0.07481817  0.54906108  0.28437206     0.14400
H592        H  0.04703752  0.40321581  0.31256749     0.14300
H593        H  0.13252926  0.48381067  0.31528719     0.32500
H594        H  0.98682404  0.46638590  0.28217280     0.35200
C595        C  0.53733875  0.48961390  0.30298595     0.20800
C596        C  0.54492717  0.46227267  0.31254346    -0.39000
C597        C  0.57306342  0.45393720  0.30541649     0.19800
C598        C  0.59229946  0.47120858  0.28933807     0.22500
C599        C  0.58448048  0.49860850  0.27909016    -0.39500
C600        C  0.55619395  0.50723925  0.28679966     0.21300
N601        N  0.51141337  0.50168962  0.30611274    -0.32800
C602        C  0.51320581  0.52716119  0.29147005    -0.10400
C603        C  0.54093270  0.53159840  0.27919844    -0.29200
N604        N  0.61693205  0.45700424  0.28306403    -0.45800
C605        C  0.61296071  0.43060602  0.29515149    -0.05100
C606        C  0.58603281  0.42813693  0.30959648    -0.22400
H607        H  0.52981266  0.44830301  0.32435408     0.19400
H608        H  0.59903900  0.51188561  0.26548069     0.18200
H609        H  0.54839322  0.54937874  0.26508351     0.14400
H610        H  0.57632877  0.40923416  0.31946611     0.14300
H611        H  0.49312402  0.49251427  0.31633962     0.32500
H612        H  0.63428298  0.46400198  0.26913500     0.35200
C613        C  0.28692162  0.49093665  0.25991966     0.20800
C614        C  0.31165468  0.48990209  0.24046039    -0.39000
C615        C  0.33784410  0.49043839  0.25689820     0.19800
C616        C  0.33935066  0.49125615  0.29048846     0.22500
C617        C  0.31458972  0.49114407  0.30996447    -0.39500
C618        C  0.28839626  0.49135074  0.29350929     0.21300
N619        N  0.26089302  0.49946686  0.25012128    -0.32800
C620        C  0.24617194  0.50635630  0.27747803    -0.10400
C621        C  0.26212359  0.50042050  0.30502706    -0.29200
N622        N  0.36531516  0.50024589  0.29998318    -0.45800
C623        C  0.37986449  0.50632365  0.27240160    -0.05100
C624        C  0.36398776  0.49914554  0.24510168    -0.22400
H625        H  0.31059835  0.49276055  0.21446129     0.19400
H626        H  0.31563488  0.49491674  0.33587054     0.18200
H627        H  0.25718089  0.50695789  0.32968085     0.14400
H628        H  0.36869531  0.50498095  0.22028804     0.14300
H629        H  0.25523451  0.50467427  0.22641203     0.32500
H630        H  0.37083115  0.50656560  0.32347440     0.35200
C631        C  0.18567586  0.86500541  0.07420461     0.20800
C632        C  0.19837540  0.85255503  0.10154047    -0.39000
C633        C  0.18290380  0.85537758  0.13084607     0.19800
C634        C  0.15662833  0.86913842  0.13254103     0.22500
C635        C  0.14405174  0.88162471  0.10534572    -0.39500
C636        C  0.15966683  0.87919073  0.07629714     0.21300
N637        N  0.19502481  0.86390680  0.04320612    -0.32800
C638        C  0.17468262  0.87738547  0.02555264    -0.10400
C639        C  0.15258930  0.88756272  0.04550837    -0.29200
N640        N  0.14701902  0.87056608  0.16327893    -0.45800
C641        C  0.16751328  0.85820969  0.18161973    -0.05100
C642        C  0.19014309  0.84815491  0.16220170    -0.22400
H643        H  0.21886492  0.84169614  0.10015515     0.19400
H644        H  0.12362829  0.89261193  0.10674828     0.18200
H645        H  0.13270199  0.89745636  0.03808470     0.14400
H646        H  0.21018219  0.83894586  0.17019108     0.14300
H647        H  0.21295156  0.85287237  0.03434331     0.32500
H648        H  0.12873831  0.88137665  0.17156206     0.35200
C649        C  0.02523451  0.98469673  0.29961337     0.20800
C650        C  0.03157822  0.95580030  0.29435323    -0.39000
C651        C  0.06002947  0.94749439  0.30085819     0.19800
C652        C  0.08043811  0.96673491  0.31125651     0.22500
C653        C  0.07417573  0.99537843  0.31642322    -0.39500
C654        C  0.04587144  0.00348824  0.31046364     0.21300
N655        N  0.00075285  0.99863504  0.29256349    -0.32800
C656        C  0.00620562  0.02635092  0.29898516    -0.10400
C657        C  0.03392321  0.03001845  0.31062243    -0.29200
N658        N  0.10631773  0.95453037  0.31308052    -0.45800
C659        C  0.10276123  0.92730777  0.30349267    -0.05100
C660        C  0.07406579  0.92184519  0.29607771    -0.22400
H661        H  0.01585948  0.94112942  0.28487656     0.19400
H662        H  0.09041567  0.01044875  0.32372334     0.18200
H663        H  0.04469203  0.04979664  0.31593114     0.14400
H664        H  0.06520811  0.90253477  0.28603725     0.14300
H665        H  0.98236978  0.99018381  0.28187248     0.32500
H666        H  0.12562073  0.96458706  0.31873990     0.35200
C667        C  0.53879799  0.96429923  0.29872125     0.20800
C668        C  0.54598139  0.99250574  0.30479058    -0.39000
C669        C  0.57447984  0.99973569  0.29868057     0.19800
C670        C  0.59464963  0.98051400  0.28710326     0.22500
C671        C  0.58732829  0.95198857  0.28069785    -0.39500
C672        C  0.55846646  0.94459588  0.28703587     0.21300
N673        N  0.51245996  0.95326490  0.30036400    -0.32800
C674        C  0.51471413  0.92633898  0.28918916    -0.10400
C675        C  0.54323777  0.91984386  0.28092870    -0.29200
N676        N  0.61965377  0.99384215  0.28059616    -0.45800
C677        C  0.61488339  0.02159519  0.28806318    -0.05100
C678        C  0.58710779  0.02582497  0.29971867    -0.22400
H679        H  0.53020875  0.00798935  0.31282633     0.19400
H680        H  0.60260133  0.93701443  0.27045326     0.18200
H681        H  0.55126560  0.90057828  0.26964758     0.14400
H682        H  0.57680313  0.04578123  0.30585848     0.14300
H683        H  0.49363128  0.96407785  0.30685201     0.32500
H684        H  0.63797377  0.98506444  0.26969558     0.35200
C685        C  0.33107142  0.95156901  0.23732302     0.20800
C686        C  0.30532617  0.94776650  0.22056887    -0.39000
C687        C  0.28027887  0.94911074  0.23937264     0.19800
C688        C  0.28071802  0.95472607  0.27244131     0.22500
C689        C  0.30639214  0.95993582  0.28890772    -0.39500
C690        C  0.33155647  0.95779144  0.27027646     0.21300
N691        N  0.35681609  0.94207153  0.22729408    -0.32800
C692        C  0.37344428  0.94146556  0.25404093    -0.10400
C693        C  0.35892192  0.95230902  0.28099275    -0.29200
N694        N  0.25577257  0.94712955  0.28627916    -0.45800
C695        C  0.23985619  0.93592583  0.26206685    -0.05100
C696        C  0.25394749  0.93770880  0.23234004    -0.22400
H697        H  0.30508470  0.94009611  0.19574619     0.19400
H698        H  0.30701605  0.96138424  0.31511632     0.18200
H699        H  0.36559768  0.95086889  0.30603621     0.14400
H700        H  0.24772731  0.92768381  0.20974778     0.14300
H701        H  0.36135923  0.93237660  0.20495337     0.32500
H702        H  0.25151245  0.94588524  0.31113847     0.35200
C703        C  0.42838481  0.58755398  0.06245166     0.20800
C704        C  0.41337603  0.59691735  0.09035810    -0.39000
C705        C  0.42725285  0.59229573  0.12014305     0.19800
C706        C  0.45407925  0.57965363  0.12170982     0.22500
C707        C  0.46898821  0.57040270  0.09401067    -0.39500
C708        C  0.45508173  0.57472406  0.06451766     0.21300
N709        N  0.42072079  0.59043668  0.03114774    -0.32800
C710        C  0.44288635  0.57944718  0.01348696    -0.10400
C711        C  0.46448857  0.56928041  0.03351455    -0.29200
N712        N  0.46245161  0.57682540  0.15255040    -0.45800
C713        C  0.44081442  0.58742682  0.17111367    -0.05100
C714        C  0.41840983  0.59742231  0.15181389    -0.22400
H715        H  0.39249276  0.60696204  0.08899475     0.19400
H716        H  0.48996306  0.56052492  0.09533195     0.18200
H717        H  0.48518981  0.56073325  0.02627625     0.14400
H718        H  0.39802456  0.60613869  0.15986040     0.14300
H719        H  0.40246277  0.60068212  0.02236472     0.32500
H720        H  0.48127125  0.56708097  0.16054873     0.35200
C721        C  0.54358954  0.50257013  0.38093078     0.20800
C722        C  0.57249734  0.49609936  0.37548787    -0.39000
C723        C  0.58063847  0.46833560  0.38228176     0.19800
C724        C  0.56154730  0.44823978  0.39361358     0.22500
C725        C  0.53242687  0.45486908  0.39948961    -0.39500
C726        C  0.52414967  0.48292033  0.39257508     0.21300
N727        N  0.53145092  0.52814107  0.37853169    -0.32800
C728        C  0.50414379  0.52529734  0.38927512    -0.10400
C729        C  0.49847915  0.49725335  0.39788684    -0.29200
N730        N  0.57537753  0.42367341  0.39948557    -0.45800
C731        C  0.60332143  0.42861911  0.39196954    -0.05100
C732        C  0.60731139  0.45612884  0.38109626    -0.22400
H733        H  0.58770583  0.51176977  0.36714603     0.19400
H734        H  0.51756681  0.43960971  0.40944854     0.18200
H735        H  0.47918174  0.48908059  0.40912296     0.14400
H736        H  0.62733259  0.46620995  0.37448396     0.14300
H737        H  0.54178433  0.54690716  0.37207860     0.32500
H738        H  0.56674292  0.40535078  0.40962807     0.35200
C739        C  0.42380608  0.87098587  0.05790822     0.20800
C740        C  0.41629979  0.85558753  0.08575617    -0.39000
C741        C  0.42929869  0.86449510  0.11475221     0.19800
C742        C  0.44837297  0.88689918  0.11570485     0.22500
C743        C  0.45561762  0.90242060  0.08804994    -0.39500
C744        C  0.44261828  0.89360551  0.05920234     0.21300
N745        N  0.41715255  0.86478154  0.02697019    -0.32800
C746        C  0.43222427  0.88329610  0.00856908    -0.10400
C747        C  0.44786092  0.90195815  0.02787107    -0.29200
N748        N  0.45775901  0.89136779  0.14596817    -0.45800
C749        C  0.44434751  0.87199608  0.16472276    -0.05100
C750        C  0.42642092  0.85471700  0.14613381    -0.22400
H751        H  0.40193489  0.83762966  0.08478238     0.19400
H752        H  0.47087209  0.91966024  0.08880027     0.18200
H753        H  0.46346697  0.91741353  0.01993221     0.14400
H754        H  0.41229672  0.83815493  0.15461794     0.14300
H755        H  0.40542131  0.84733034  0.01879830     0.32500
H756        H  0.47141475  0.90756145  0.15367060     0.35200
C757        C  0.54607317  0.95218122  0.37842066     0.20800
C758        C  0.57500955  0.95760729  0.37234499    -0.39000
C759        C  0.58324282  0.98584614  0.37526714     0.19800
C760        C  0.56428537  0.00737348  0.38374535     0.22500
C761        C  0.53505117  0.00186734  0.39002064    -0.39500
C762        C  0.52665063  0.97331408  0.38689595     0.21300
N763        N  0.53368499  0.92671416  0.37894526    -0.32800
C764        C  0.50608805  0.93123982  0.38796915    -0.10400
C765        C  0.50065311  0.96011096  0.39300745    -0.29200
N766        N  0.57845418  0.03207057  0.38736387    -0.45800
C767        C  0.60646630  0.02569992  0.38140557    -0.05100
C768        C  0.61007660  0.99726155  0.37337672    -0.22400
H769        H  0.59021180  0.94088164  0.36653750     0.19400
H770        H  0.52020243  0.01836576  0.39759621     0.18200
H771        H  0.48098659  0.96985110  0.40179054     0.14400
H772        H  0.63005114  0.98598427  0.36908005     0.14300
H773        H  0.54379584  0.90720632  0.37476746     0.32500
H774        H  0.57001684  0.05137647  0.39562488     0.35200
C775        C  0.51084022  0.75711521  0.47199369     0.20800
C776        C  0.50236179  0.73243700  0.48776399    -0.39000
C777        C  0.51003839  0.70706367  0.47240452     0.19800
C778        C  0.52615662  0.70614176  0.44396789     0.22500
C779        C  0.53610762  0.73088079  0.42919476    -0.39500
C780        C  0.52747375  0.75639184  0.44391324     0.21300
N781        N  0.49789919  0.78234486  0.47544151    -0.32800
C782        C  0.50570184  0.79741410  0.44914002    -0.10400
C783        C  0.52511306  0.78253794  0.42967565    -0.29200
N784        N  0.52346310  0.68078443  0.42930341    -0.45800
C785        C  0.50474553  0.66620876  0.44794473    -0.05100
C786        C  0.49676726  0.68140323  0.47549841    -0.22400
H787        H  0.48694922  0.73299977  0.50754561     0.19400
H788        H  0.54594539  0.73039194  0.40532744     0.18200
H789        H  0.53194370  0.78801922  0.40537828     0.14400
H790        H  0.47990963  0.67612396  0.49260290     0.14300
H791        H  0.48143341  0.78738132  0.49187134     0.32500
H792        H  0.53030755  0.67541066  0.40585599     0.35200
In793      In  0.45695135  0.86348561  0.91565632     1.36900
C794        C  0.42595361  0.84328627  0.86601902     0.78100
O795        O  0.46038482  0.90988411  0.90175750    -0.60400
O796        O  0.49719885  0.88302260  0.89891941    -0.51300
C797        C  0.43816548  0.87872397  0.97395900     0.70700
O798        O  0.42584260  0.85984249  0.95732863    -0.46100
C799        C  0.48880580  0.82123692  0.93757552     0.75500
O800        O  0.41443742  0.85686170  0.88919630    -0.58000
O801        O  0.49803124  0.83844343  0.91696346    -0.48100
O802        O  0.45277302  0.84137028  0.86802474    -0.54400
C803        C  0.48705371  0.90760348  0.89600490     0.85600
O804        O  0.45812539  0.89153314  0.95950895    -0.56300
O805        O  0.46329197  0.82528837  0.94654531    -0.59600
In806      In  0.45981359  0.59665221  0.91789941     1.36900
C807        C  0.42877610  0.61751033  0.86929392     0.78100
O808        O  0.46413349  0.63619953  0.94685187    -0.60400
O809        O  0.49868848  0.62456838  0.91548609    -0.51300
C810        C  0.44700822  0.58313499  0.97842175     0.70700
O811        O  0.47126821  0.57891101  0.96553339    -0.46100
C812        C  0.48657721  0.55021470  0.89741958     0.75500
O813        O  0.41702997  0.60526001  0.89309766    -0.58000
O814        O  0.49805125  0.57421846  0.89924716    -0.48100
O815        O  0.45571142  0.61798889  0.87049243    -0.54400
C816        C  0.48895492  0.64160251  0.93648505     0.85600
O817        O  0.42794916  0.59246935  0.95945676    -0.56300
O818        O  0.46012086  0.54970548  0.90452903    -0.59600
In819      In  0.44014196  0.88494550  0.76332584     1.36900
C820        C  0.42105552  0.84889925  0.80887256     0.78100
O821        O  0.48846177  0.88377171  0.77388900    -0.60400
O822        O  0.46481064  0.92186759  0.78070135    -0.51300
C823        C  0.44512367  0.87336362  0.70031917     0.70700
O824        O  0.42808729  0.85985907  0.71842424    -0.46100
C825        C  0.39809905  0.92247515  0.75665442     0.75500
O826        O  0.43747866  0.84055092  0.78617642    -0.58000
O827        O  0.41610911  0.92415581  0.77920184    -0.48100
O828        O  0.41530520  0.87486882  0.80785851    -0.54400
C829        C  0.48888297  0.90982131  0.78138784     0.85600
O830        O  0.46125854  0.89049224  0.71499631    -0.56300
O831        O  0.40169121  0.90187756  0.73752235    -0.59600
In832      In  0.17397190  0.87976284  0.77801678     1.36900
C833        C  0.19262946  0.84382005  0.82342573     0.78100
O834        O  0.20424022  0.90311121  0.74535613    -0.60400
O835        O  0.20540779  0.91253148  0.79559368    -0.51300
C836        C  0.16854794  0.86193516  0.71710104     0.70700
O837        O  0.19086534  0.85703452  0.73350029    -0.46100
C838        C  0.12745784  0.90904392  0.79584387     0.75500
O839        O  0.17861605  0.83495373  0.79929825    -0.58000
O840        O  0.15193702  0.91956983  0.79230723    -0.48100
O841        O  0.19578603  0.87015922  0.82405143    -0.54400
C842        C  0.21558224  0.91714818  0.76782769     0.85600
O843        O  0.14814548  0.87329651  0.73289019    -0.56300
O844        O  0.12628545  0.88260781  0.79108665    -0.59600
In845      In  0.43872625  0.57085043  0.76944958     1.36900
C846        C  0.42200961  0.61196757  0.81155315     0.78100
O847        O  0.41130588  0.53823449  0.74531879    -0.60400
O848        O  0.41366202  0.53796897  0.79673235    -0.51300
C849        C  0.44037114  0.58450380  0.70663297     0.70700
O850        O  0.41863866  0.58948869  0.72417197    -0.46100
C851        C  0.48746114  0.54452060  0.78542855     0.75500
O852        O  0.44793150  0.60726365  0.80413017    -0.58000
O853        O  0.46284090  0.53554703  0.79262288    -0.48100
O854        O  0.40470403  0.59788082  0.79473331    -0.54400
C855        C  0.40278001  0.52743916  0.77146968     0.85600
O856        O  0.46160425  0.57488294  0.72174323    -0.56300
O857        O  0.48762744  0.56829261  0.77154521    -0.59600
In858      In  0.18357938  0.56771522  0.77735646     1.36900
C859        C  0.19932767  0.60807646  0.81976556     0.78100
O860        O  0.13539263  0.56497522  0.78439407    -0.60400
O861        O  0.16159169  0.53077932  0.79983597    -0.51300
C862        C  0.17881700  0.58180773  0.71501075     0.70700
O863        O  0.19967341  0.58996208  0.73201815    -0.46100
C864        C  0.22226046  0.52649748  0.77750905     0.75500
O865        O  0.17347026  0.60364555  0.81234047    -0.58000
O866        O  0.21207298  0.53717592  0.80325630    -0.48100
O867        O  0.21695170  0.59441564  0.80248360    -0.54400
C868        C  0.13658839  0.54018542  0.79560956     0.85600
O869        O  0.15978928  0.56868681  0.73047853    -0.56300
O870        O  0.21177020  0.53605188  0.75171120    -0.59600
In871      In  0.15866267  0.85930486  0.93000250     1.36900
C872        C  0.18974108  0.83730782  0.88075662     0.78100
O873        O  0.15332291  0.82052318  0.95953388    -0.60400
O874        O  0.11762818  0.83422980  0.93191858    -0.51300
C875        C  0.17178112  0.87458794  0.99013361     0.70700
O876        O  0.18952648  0.86129841  0.97222582    -0.46100
C877        C  0.13158192  0.90362624  0.90608298     0.75500
O878        O  0.20133093  0.85179370  0.90303394    -0.58000
O879        O  0.12091324  0.87928862  0.90829952    -0.48100
O880        O  0.16309197  0.83449361  0.88421761    -0.54400
C881        C  0.12760609  0.81657903  0.95159783     0.85600
O882        O  0.14936080  0.88274660  0.97597793    -0.56300
O883        O  0.15753920  0.90554832  0.91472901    -0.59600
In884      In  0.16119418  0.59038347  0.92650153     1.36900
C885        C  0.19226655  0.61234372  0.87780925     0.78100
O886        O  0.16083858  0.54323220  0.91225194    -0.60400
O887        O  0.12346835  0.56850062  0.90655212    -0.51300
C888        C  0.17464821  0.57694453  0.98693388     0.70700
O889        O  0.19346639  0.58609393  0.96737333    -0.46100
C890        C  0.13107615  0.63517756  0.94606415     0.75500
O891        O  0.20402083  0.59931330  0.90093261    -0.58000
O892        O  0.12129530  0.61751647  0.92600833    -0.48100
O893        O  0.16533837  0.61298898  0.87962863    -0.54400
C894        C  0.13467685  0.54431887  0.90424775     0.85600
O895        O  0.15037567  0.57255245  0.97460298    -0.56300
O896        O  0.15626087  0.63029580  0.95537409    -0.59600
C897        C  0.41302980  0.63017687  0.84066295    -0.02000
C898        C  0.20795376  0.62564330  0.84921789    -0.02000
C899        C  0.20488185  0.82595122  0.85047732    -0.02000
C900        C  0.41023233  0.83107658  0.83700812    -0.02000
In901      In  0.94078021  0.38520184  0.91576407     1.36900
C902        C  0.92113268  0.34945957  0.87015722     0.78100
O903        O  0.90493390  0.40235418  0.94590389    -0.60400
O904        O  0.91349613  0.42239000  0.90103034    -0.51300
C905        C  0.94845226  0.37187549  0.97740844     0.70700
O906        O  0.92973560  0.35974797  0.96014557    -0.46100
C907        C  0.98851096  0.41122983  0.89729539     0.75500
O908        O  0.93622391  0.34067865  0.89340677    -0.58000
O909        O  0.96462328  0.42327760  0.90121684    -0.48100
O910        O  0.91698963  0.37574677  0.87061840    -0.54400
C911        C  0.89827567  0.42144694  0.92631218     0.85600
O912        O  0.96468824  0.38860878  0.96233731    -0.56300
O913        O  0.98832453  0.38474325  0.90174372    -0.59600
In914      In  0.67270904  0.37894144  0.91567271     1.36900
C915        C  0.69228960  0.34434202  0.86823365     0.78100
O916        O  0.62573658  0.38302646  0.90135034    -0.60400
O917        O  0.65175371  0.41980105  0.90513754    -0.51300
C918        C  0.66288073  0.36206464  0.97575178     0.70700
O919        O  0.68527740  0.35500850  0.96018447    -0.46100
C920        C  0.71484814  0.41474149  0.92823711     0.75500
O921        O  0.67795221  0.33467062  0.89171336    -0.58000
O922        O  0.70016324  0.41618220  0.90284289    -0.48100
O923        O  0.69507920  0.37073670  0.86914823    -0.54400
C924        C  0.62737209  0.40972192  0.89946017     0.85600
O925        O  0.64434772  0.37525311  0.95949982    -0.56300
O926        O  0.70798722  0.39514270  0.94719633    -0.59600
In927      In  0.96050009  0.36227493  0.76502486     1.36900
C928        C  0.92682566  0.34288660  0.81311793     0.78100
O929        O  0.96848273  0.32431938  0.73328819    -0.60400
O930        O  0.99949082  0.33404925  0.76892981    -0.51300
C931        C  0.94665846  0.37720071  0.70509478     0.70700
O932        O  0.93111642  0.36082790  0.72172389    -0.46100
C933        C  0.99012968  0.40589498  0.78767840     0.75500
O934        O  0.91642745  0.35656819  0.78969809    -0.58000
O935        O  0.00028742  0.38153726  0.78262750    -0.48100
O936        O  0.95360941  0.34010564  0.81167806    -0.54400
C937        C  0.99213134  0.31811217  0.74591737     0.85600
O938        O  0.96734767  0.38806601  0.72026312    -0.56300
O939        O  0.96353732  0.40844034  0.78202372    -0.59600
In940      In  0.96178606  0.09461689  0.76335427     1.36900
C941        C  0.92976620  0.11702455  0.81150466     0.78100
O942        O  0.96316705  0.04811742  0.77763208    -0.60400
O943        O  0.99868740  0.07485524  0.78768033    -0.51300
C944        C  0.95054006  0.07951639  0.70291932     0.70700
O945        O  0.93106333  0.08954339  0.72133425    -0.46100
C946        C  0.99220425  0.13778008  0.74203164     0.75500
O947        O  0.91870373  0.10178727  0.78951601    -0.58000
O948        O  0.00250820  0.11950753  0.76074726    -0.48100
O949        O  0.95640561  0.12026982  0.80838184    -0.54400
C950        C  0.98846918  0.05026117  0.78832813     0.85600
O951        O  0.97407573  0.07446657  0.71658965    -0.56300
O952        O  0.96616386  0.13444411  0.73492025    -0.59600
In953      In  0.65662434  0.36016190  0.76299386     1.36900
C954        C  0.68893842  0.33945927  0.81082344     0.78100
O955        O  0.65581468  0.40709497  0.77516924    -0.60400
O956        O  0.62017952  0.38124037  0.78788355    -0.51300
C957        C  0.66770399  0.37402091  0.70218717     0.70700
O958        O  0.68635641  0.36202690  0.71964043    -0.46100
C959        C  0.62648984  0.31617996  0.74305214     0.75500
O960        O  0.70001433  0.35370711  0.78810633    -0.58000
O961        O  0.61581734  0.33493007  0.76140928    -0.48100
O962        O  0.66217121  0.33678474  0.80877765    -0.54400
C963        C  0.63056132  0.40578898  0.78653675     0.85600
O964        O  0.64502802  0.38132911  0.71685768    -0.56300
O965        O  0.65248782  0.31959604  0.73568373    -0.59600
In966      In  0.66080723  0.09051049  0.75603184     1.36900
C967        C  0.69260485  0.11271420  0.80396312     0.78100
O968        O  0.65671160  0.13058490  0.72833342    -0.60400
O969        O  0.62049276  0.11636265  0.75523475    -0.51300
C970        C  0.67251354  0.07696744  0.69507779     0.70700
O971        O  0.69177840  0.08670277  0.71357789    -0.46100
C972        C  0.63335266  0.04547803  0.77872533     0.75500
O973        O  0.70382633  0.09804101  0.78133984    -0.58000
O974        O  0.62341379  0.07027670  0.77904450    -0.48100
O975        O  0.66579004  0.11507926  0.80193588    -0.54400
C976        C  0.63092273  0.13457189  0.73648344     0.85600
O977        O  0.64897577  0.07154065  0.70879691    -0.56300
O978        O  0.65895207  0.04335068  0.76845054    -0.59600
In979      In  0.94476835  0.07568349  0.91522790     1.36900
C980        C  0.92568235  0.11151771  0.86893550     0.78100
O981        O  0.99237598  0.07158490  0.90153905    -0.60400
O982        O  0.96708280  0.03466711  0.90669317    -0.51300
C983        C  0.95092517  0.09290366  0.97620232     0.70700
O984        O  0.92765413  0.09559746  0.96099385    -0.46100
C985        C  0.90269056  0.03891647  0.92484766     0.75500
O986        O  0.94084516  0.12030222  0.89218698    -0.58000
O987        O  0.91681217  0.03965067  0.89868706    -0.48100
O988        O  0.92158249  0.08528951  0.86951984    -0.54400
C989        C  0.99143571  0.04483193  0.90101958     0.85600
O990        O  0.97190005  0.08435704  0.95917960    -0.56300
O991        O  0.91060075  0.05631057  0.94620574    -0.59600
In992      In  0.67692591  0.07239569  0.90764905     1.36900
C993        C  0.69684544  0.10725921  0.86125586     0.78100
O994        O  0.71104862  0.05541139  0.94014479    -0.60400
O995        O  0.70457915  0.03438375  0.89524821    -0.51300
C996        C  0.66733734  0.08866134  0.96843007     0.70700
O997        O  0.68909333  0.09654578  0.95246930    -0.46100
C998        C  0.63091300  0.04383536  0.88923061     0.75500
O999        O  0.68160769  0.11647802  0.88451016    -0.58000
O1000       O  0.65522320  0.03297803  0.89358318    -0.48100
O1001       O  0.70097505  0.08100392  0.86204300    -0.54400
C1002       C  0.71847630  0.03567199  0.92127753     0.85600
O1003       O  0.64899866  0.07501716  0.95224880    -0.56300
O1004       O  0.62970580  0.07039223  0.89336863    -0.59600
C1005       C  0.70479137  0.32751532  0.83983951    -0.02000
C1006       C  0.70846516  0.12464504  0.83317480    -0.02000
C1007       C  0.91399463  0.12913830  0.84099366    -0.02000
C1008       C  0.91014606  0.33160119  0.84207507    -0.02000
C1009       C  0.91593010  0.20456381  0.86200189     0.20800
C1010       C  0.90808800  0.22941249  0.87930633    -0.39000
C1011       C  0.91387454  0.25533277  0.86371278     0.19800
C1012       C  0.92649833  0.25624101  0.83331438     0.22500
C1013       C  0.93423618  0.23155967  0.81610055    -0.39500
C1014       C  0.92855487  0.20582807  0.83164234     0.21300
N1015       N  0.91065851  0.17734984  0.87005274    -0.32800
C1016       C  0.91994638  0.16105306  0.84461565    -0.10400
C1017       C  0.93137399  0.17843141  0.82030152    -0.29200
N1018       N  0.92803397  0.28300332  0.82262193    -0.45800
C1019       C  0.91628393  0.29981856  0.84621117    -0.05100
C1020       C  0.90716382  0.28309855  0.87232068    -0.22400
H1021       H  0.89741139  0.22861031  0.90267039     0.19400
H1022       H  0.94323709  0.23232301  0.79184618     0.18200
H1023       H  0.93889006  0.17218894  0.79639065     0.14400
H1024       H  0.89591995  0.29022896  0.89396098     0.14300
H1025       H  0.90005161  0.17032606  0.89086823     0.32500
H1026       H  0.93524957  0.28901496  0.79966071     0.35200
C1027       C  0.78513788  0.11314121  0.84438479     0.20800
C1028       C  0.80971519  0.10615045  0.86213744    -0.39000
C1029       C  0.83597341  0.11486314  0.84885837     0.19800
C1030       C  0.83780035  0.12955274  0.82008600     0.22500
C1031       C  0.81305926  0.13670355  0.80225040    -0.39500
C1032       C  0.78660841  0.12785742  0.81557782     0.21300
N1033       N  0.75775507  0.10869213  0.85323498    -0.32800
C1034       C  0.74110041  0.12071976  0.83008462    -0.10400
C1035       C  0.75854641  0.13277269  0.80599575    -0.29200
N1036       N  0.86539870  0.13610685  0.81343155    -0.45800
C1037       C  0.88136473  0.12538593  0.83807386    -0.05100
C1038       C  0.86339645  0.11212145  0.86070331    -0.22400
H1039       H  0.80842823  0.09514998  0.88503671     0.19400
H1040       H  0.81426287  0.14873706  0.78005392     0.18200
H1041       H  0.75155339  0.14492273  0.78532610     0.14400
H1042       H  0.86932004  0.10235903  0.88336576     0.14300
H1043       H  0.75115588  0.09948944  0.87497129     0.32500
H1044       H  0.87295921  0.14752078  0.79355025     0.35200
C1045       C  0.83309128  0.34503440  0.84919988     0.20800
C1046       C  0.80755100  0.35353946  0.86479642    -0.39000
C1047       C  0.78199752  0.34458351  0.85010004     0.19800
C1048       C  0.78171927  0.32851520  0.82194094     0.22500
C1049       C  0.80734341  0.32010741  0.80622187    -0.39500
C1050       C  0.83300747  0.32899043  0.82099683     0.21300
N1051       N  0.86005466  0.34898856  0.85974705    -0.32800
C1052       C  0.87763950  0.33536958  0.83813630    -0.10400
C1053       C  0.86133480  0.32277448  0.81352191    -0.29200
N1054       N  0.75460368  0.32126016  0.81415819    -0.45800
C1055       C  0.73731729  0.33263262  0.83761867    -0.05100
C1056       C  0.75399349  0.34740287  0.86042897    -0.22400
H1057       H  0.80757906  0.36547336  0.88733900     0.19400
H1058       H  0.80732897  0.30684500  0.78468432     0.18200
H1059       H  0.86918081  0.30967352  0.79367941     0.14400
H1060       H  0.74696971  0.35777958  0.88260999     0.14300
H1061       H  0.86571375  0.35920538  0.88131991     0.32500
H1062       H  0.74826522  0.30847614  0.79470465     0.35200
C1063       C  0.69185832  0.20027396  0.82765115     0.20800
C1064       C  0.68229822  0.22530434  0.81286050    -0.39000
C1065       C  0.68967402  0.25079457  0.82858097     0.19800
C1066       C  0.70559500  0.25151159  0.85672443     0.22500
C1067       C  0.71515322  0.22640325  0.87157953    -0.39500
C1068       C  0.70748454  0.20080943  0.85603727     0.21300
N1069       N  0.68901611  0.17352449  0.81645053    -0.32800
C1070       C  0.70279901  0.15652507  0.83793179    -0.10400
C1071       C  0.71443276  0.17300847  0.86304861    -0.29200
N1072       N  0.71161253  0.27854334  0.86530460    -0.45800
C1073       C  0.69964418  0.29536661  0.84232909    -0.05100
C1074       C  0.68552873  0.27844337  0.81921637    -0.22400
H1075       H  0.67059187  0.22500127  0.79025739     0.19400
H1076       H  0.72821619  0.22676558  0.89319102     0.18200
H1077       H  0.72750861  0.16564158  0.88290242     0.14400
H1078       H  0.67512897  0.28510131  0.79715264     0.14300
H1079       H  0.67935600  0.16760389  0.79465274     0.32500
H1080       H  0.72436290  0.28512977  0.88468243     0.35200
C1081       C  0.83595314  0.01102845  0.94898061     0.20800
C1082       C  0.81048807  0.01433444  0.96683559    -0.39000
C1083       C  0.78508245  0.00928270  0.94986641     0.19800
C1084       C  0.78501099  0.00087935  0.91753739     0.22500
C1085       C  0.81056317  0.99677719  0.89997373    -0.39500
C1086       C  0.83596132  0.00245052  0.91673983     0.21300
N1087       N  0.86153241  0.02187257  0.95697584    -0.32800
C1088       C  0.87758060  0.02093611  0.92951102    -0.10400
C1089       C  0.86276700  0.00809952  0.90419736    -0.29200
N1090       N  0.75899559  0.00506825  0.90455435    -0.45800
C1091       C  0.74296183  0.01737488  0.92826984    -0.05100
C1092       C  0.75803302  0.01913984  0.95722478    -0.22400
H1093       H  0.81032704  0.02382131  0.99084106     0.19400
H1094       H  0.81052182  0.99311654  0.87401653     0.18200
H1095       H  0.86905000  0.00735764  0.87887554     0.14400
H1096       H  0.75178702  0.03091437  0.97881357     0.14300
H1097       H  0.86637565  0.03277297  0.97840578     0.32500
H1098       H  0.75405944  0.00420231  0.87988019     0.35200
C1099       C  0.68093386  0.09405943  0.55293031     0.20800
C1100       C  0.69822494  0.09706957  0.58057619    -0.39000
C1101       C  0.68667513  0.08628694  0.60948249     0.19800
C1102       C  0.65999697  0.07349185  0.61051613     0.22500
C1103       C  0.64272926  0.07056531  0.58298976    -0.39500
C1104       C  0.65423473  0.08132446  0.55419595     0.21300
N1105       N  0.68777759  0.10073023  0.52223244    -0.32800
C1106       C  0.66543461  0.09190157  0.50383474    -0.10400
C1107       C  0.64394526  0.07996424  0.52298384    -0.29200
N1108       N  0.65310640  0.06631183  0.64092482    -0.45800
C1109       C  0.67527513  0.07484705  0.65967720    -0.05100
C1110       C  0.69687294  0.08718694  0.64091445    -0.22400
H1111       H  0.71912309  0.10699655  0.57961460     0.19400
H1112       H  0.62189096  0.06050841  0.58392375     0.18200
H1113       H  0.62456230  0.06956214  0.51488208     0.14400
H1114       H  0.71622996  0.09740408  0.64937848     0.14300
H1115       H  0.70734222  0.10882588  0.51402546     0.32500
H1116       H  0.63356957  0.05786542  0.64875190     0.35200
C1117       C  0.59371978  0.19927222  0.73328743     0.20800
C1118       C  0.58385366  0.22340766  0.74998751    -0.39000
C1119       C  0.59146721  0.24944756  0.73646678     0.19800
C1120       C  0.60713279  0.25123228  0.70780764     0.22500
C1121       C  0.61615914  0.22715129  0.69057882    -0.39500
C1122       C  0.60944440  0.20121705  0.70469210     0.21300
N1123       N  0.59638641  0.17331021  0.74591751    -0.32800
C1124       C  0.61489760  0.15931386  0.72608076    -0.10400
C1125       C  0.62279018  0.17559691  0.69961345    -0.29200
N1126       N  0.61840543  0.27710384  0.70466654    -0.45800
C1127       C  0.61060405  0.29156753  0.73174020    -0.05100
C1128       C  0.59289901  0.27550675  0.75161655    -0.22400
H1129       H  0.57443967  0.22203657  0.77400213     0.19400
H1130       H  0.63090566  0.22857429  0.67024586     0.18200
H1131       H  0.63949944  0.17088375  0.68196873     0.14400
H1132       H  0.58649759  0.28044047  0.77632287     0.14300
H1133       H  0.58975832  0.16705962  0.76903189     0.32500
H1134       H  0.63381269  0.28319991  0.68757633     0.35200
C1135       C  0.96272577  0.07846423  0.61796963     0.20800
C1136       C  0.98000568  0.07923819  0.59000040    -0.39000
C1137       C  0.96619048  0.08769504  0.56158216     0.19800
C1138       C  0.93732555  0.09475355  0.56107614     0.22500
C1139       C  0.92005488  0.09412585  0.58915055    -0.39500
C1140       C  0.93392900  0.08579972  0.61767439     0.21300
N1141       N  0.97123635  0.07271451  0.64819580    -0.32800
C1142       C  0.94794564  0.07693068  0.66754944    -0.10400
C1143       C  0.92408522  0.08483071  0.64935929    -0.29200
N1144       N  0.92887960  0.10008618  0.53063123    -0.45800
C1145       C  0.95245176  0.09615814  0.51159921    -0.05100
C1146       C  0.97624323  0.08874159  0.53010514    -0.22400
H1147       H  0.00255233  0.07358898  0.59034620     0.19400
H1148       H  0.89749868  0.09972028  0.58879630     0.18200
H1149       H  0.90308896  0.09109537  0.65832472     0.14400
H1150       H  0.99737194  0.08261136  0.52141059     0.14300
H1151       H  0.99220598  0.06828260  0.65552019     0.32500
H1152       H  0.90791918  0.10411146  0.52299832     0.35200
C1153       C  0.01500559  0.25351573  0.71097124     0.20800
C1154       C  0.00720309  0.22912905  0.69375927    -0.39000
C1155       C  0.01439974  0.20340181  0.70812652     0.19800
C1156       C  0.02975432  0.20195424  0.73681176     0.22500
C1157       C  0.03870123  0.22643253  0.75330905    -0.39500
C1158       C  0.03025398  0.25223886  0.73973840     0.21300
N1159       N  0.00250539  0.27893327  0.70786974    -0.32800
C1160       C  0.00892655  0.29355465  0.73515844    -0.10400
C1161       C  0.02715937  0.27815106  0.75505467    -0.29200
N1162       N  0.02702819  0.17621135  0.75003756    -0.45800
C1163       C  0.00871378  0.16192051  0.73062467    -0.05100
C1164       C  0.00122537  0.17770315  0.70367273    -0.22400
H1165       H  0.99261056  0.23010878  0.67345303     0.19400
H1166       H  0.04767557  0.22539752  0.77743324     0.18200
H1167       H  0.03302560  0.28328651  0.77977529     0.14400
H1168       H  0.98461190  0.17280789  0.68626720     0.14300
H1169       H  0.98719167  0.28446987  0.69059562     0.32500
H1170       H  0.03320540  0.17046309  0.77340690     0.35200
C1171       C  0.65519542  0.37869167  0.61762465     0.20800
C1172       C  0.63812565  0.38213509  0.58999882    -0.39000
C1173       C  0.64905915  0.37006604  0.56126978     0.19800
C1174       C  0.67503281  0.35571725  0.56014926     0.22500
C1175       C  0.69208274  0.35226765  0.58780057    -0.39500
C1176       C  0.68114490  0.36431275  0.61655681     0.21300
N1177       N  0.64863003  0.38643245  0.64818158    -0.32800
C1178       C  0.67031530  0.37657285  0.66682449    -0.10400
C1179       C  0.69124488  0.36303229  0.64789323    -0.29200
N1180       N  0.68179671  0.34833120  0.52950231    -0.45800
C1181       C  0.66019467  0.35840977  0.51092753    -0.05100
C1182       C  0.63912259  0.37165094  0.52994840    -0.22400
H1183       H  0.61787557  0.39346744  0.59079690     0.19400
H1184       H  0.71240833  0.34107722  0.58696329     0.18200
H1185       H  0.70994737  0.35159468  0.65623127     0.14400
H1186       H  0.62054400  0.38332564  0.52166591     0.14300
H1187       H  0.62950380  0.39589962  0.65615444     0.32500
H1188       H  0.70104946  0.33916968  0.52145941     0.35200
C1189       C  0.95823286  0.38188700  0.56206818     0.20800
C1190       C  0.96914436  0.39521751  0.58985382    -0.39000
C1191       C  0.95548314  0.38841606  0.61912973     0.19800
C1192       C  0.93267978  0.36973444  0.62064991     0.22500
C1193       C  0.92165683  0.35647355  0.59275160    -0.39500
C1194       C  0.93533551  0.36330605  0.56339849     0.21300
N1195       N  0.96695891  0.38557415  0.53133976    -0.32800
C1196       C  0.94940225  0.36944589  0.51282155    -0.10400
C1197       C  0.92942941  0.35508875  0.53192271    -0.29200
N1198       N  0.92491398  0.36523673  0.65165874    -0.45800
C1199       C  0.94307013  0.38096948  0.66997034    -0.05100
C1200       C  0.96221592  0.39596448  0.65048398    -0.22400
H1201       H  0.98716026  0.40961354  0.58878438     0.19400
H1202       H  0.90391945  0.34175237  0.59385744     0.18200
H1203       H  0.91197455  0.34179275  0.52376466     0.14400
H1204       H  0.98013743  0.40881272  0.65829014     0.14300
H1205       H  0.98292283  0.39939228  0.52330715     0.32500
H1206       H  0.90960272  0.35082635  0.65991732     0.35200
C1207       C  0.83164291  0.44689974  0.95275489     0.20800
C1208       C  0.80701421  0.44120333  0.97101821    -0.39000
C1209       C  0.78102086  0.44391729  0.95473524     0.19800
C1210       C  0.77949278  0.45245858  0.92267760     0.22500
C1211       C  0.80416654  0.45877330  0.90455999    -0.39500
C1212       C  0.83031065  0.45533927  0.92063556     0.21300
N1213       N  0.85806393  0.43787354  0.95991163    -0.32800
C1214       C  0.87329886  0.43940607  0.93200229    -0.10400
C1215       C  0.85719916  0.45133209  0.90727813    -0.29200
N1216       N  0.75356986  0.44654411  0.91044355    -0.45800
C1217       C  0.73920064  0.43315944  0.93442473    -0.05100
C1218       C  0.75515766  0.43201994  0.96269934    -0.22400
H1219       H  0.80823601  0.43161451  0.99474565     0.19400
H1220       H  0.80325468  0.46238855  0.87868764     0.18200
H1221       H  0.86272012  0.45184855  0.88173892     0.14400
H1222       H  0.75029451  0.41997101  0.98427756     0.14300
H1223       H  0.86397933  0.42708748  0.98089354     0.32500
H1224       H  0.74770573  0.44756080  0.88605925     0.35200
C1225       C  0.28081232  0.84051394  0.83672724     0.20800
C1226       C  0.30474677  0.84960001  0.81886094    -0.39000
C1227       C  0.33160928  0.84251810  0.83163454     0.19800
C1228       C  0.33454335  0.82755680  0.86009203     0.22500
C1229       C  0.31047152  0.81842519  0.87806814    -0.39500
C1230       C  0.28343726  0.82548185  0.86518724     0.21300
N1231       N  0.25315100  0.84335039  0.82850728    -0.32800
C1232       C  0.23750528  0.83009080  0.85185449    -0.10400
C1233       C  0.25587036  0.81861983  0.87520272    -0.29200
N1234       N  0.36249830  0.82231929  0.86599200    -0.45800
C1235       C  0.37758646  0.83398470  0.84109174    -0.05100
C1236       C  0.35873153  0.84677806  0.81919323    -0.22400
H1237       H  0.30258622  0.86081119  0.79619626     0.19400
H1238       H  0.31262643  0.80614634  0.89997749     0.18200
H1239       H  0.24983731  0.80610836  0.89602535     0.14400
H1240       H  0.36387361  0.85685375  0.79641538     0.14300
H1241       H  0.24580005  0.85277080  0.80727557     0.32500
H1242       H  0.37084854  0.81082008  0.88533233     0.35200
C1243       C  0.20021873  0.69957882  0.82702876     0.20800
C1244       C  0.20877338  0.72442115  0.81092723    -0.39000
C1245       C  0.20174630  0.75016282  0.82663475     0.19800
C1246       C  0.18732360  0.75094506  0.85604106     0.22500
C1247       C  0.17881588  0.72622129  0.87205395    -0.39500
C1248       C  0.18589157  0.70060800  0.85648731     0.21300
N1249       N  0.20738213  0.67264866  0.81937423    -0.32800
C1250       C  0.19823569  0.65638471  0.84450496    -0.10400
C1251       C  0.18420919  0.67330735  0.86782436    -0.29200
N1252       N  0.18551603  0.77757107  0.86758170    -0.45800
C1253       C  0.19891608  0.79431311  0.84550632    -0.05100
C1254       C  0.20916200  0.77779389  0.81943844    -0.22400
H1255       H  0.22121675  0.72372527  0.78866918     0.19400
H1256       H  0.16871493  0.72686357  0.89577804     0.18200
H1257       H  0.17639855  0.66707449  0.89148302     0.14400
H1258       H  0.22176071  0.78492917  0.79894327     0.14300
H1259       H  0.22002471  0.66599946  0.79969767     0.32500
H1260       H  0.17706836  0.78340205  0.89019125     0.35200
C1261       C  0.41899616  0.70406401  0.81752509     0.20800
C1262       C  0.41029446  0.72840392  0.80050746    -0.39000
C1263       C  0.41571678  0.75463243  0.81581912     0.19800
C1264       C  0.42882239  0.75633967  0.84573870     0.22500
C1265       C  0.43719835  0.73208606  0.86287306    -0.39500
C1266       C  0.43178019  0.70596357  0.84761811     0.21300
N1267       N  0.41348186  0.67679150  0.80991900    -0.32800
C1268       C  0.42224369  0.66105107  0.83556754    -0.10400
C1269       C  0.43416188  0.67878761  0.85939548    -0.29200
N1270       N  0.42985956  0.78334056  0.85623693    -0.45800
C1271       C  0.41722232  0.79941283  0.83300600    -0.05100
C1272       C  0.40809425  0.78201321  0.80735100    -0.22400
H1273       H  0.39909927  0.72697524  0.77763550     0.19400
H1274       H  0.44625472  0.73343775  0.88695366     0.18200
H1275       H  0.44099759  0.67302324  0.88350991     0.14400
H1276       H  0.39621186  0.78843982  0.78615602     0.14300
H1277       H  0.40209465  0.66950436  0.78978276     0.32500
H1278       H  0.43730953  0.78993577  0.87889604     0.35200
C1279       C  0.33719504  0.61332001  0.85329354     0.20800
C1280       C  0.31253761  0.59611111  0.85413444    -0.39000
C1281       C  0.28606586  0.61055706  0.85657586     0.19800
C1282       C  0.28449950  0.63976796  0.85850011     0.22500
C1283       C  0.30902688  0.65686219  0.85809669    -0.39500
C1284       C  0.33527605  0.64250578  0.85508218     0.21300
N1285       N  0.36470261  0.60512414  0.84867105    -0.32800
C1286       C  0.38042599  0.62932204  0.84672549    -0.10400
C1287       C  0.36250003  0.65302091  0.85121174    -0.29200
N1288       N  0.25714587  0.64863892  0.85780090    -0.45800
C1289       C  0.24064430  0.62504999  0.85452857    -0.05100
C1290       C  0.25813991  0.60075058  0.85472486    -0.22400
H1291       H  0.31379530  0.57328959  0.85164187     0.19400
H1292       H  0.30768130  0.67977123  0.85853842     0.18200
H1293       H  0.36828467  0.67519610  0.85117833     0.14400
H1294       H  0.25141378  0.57894940  0.85186595     0.14300
H1295       H  0.37222915  0.58433805  0.84615362     0.32500
H1296       H  0.25057814  0.66980196  0.85861993     0.35200
C1297       C  0.07735854  0.49905044  0.88284336     0.20800
C1298       C  0.04848287  0.49409466  0.87622274    -0.39000
C1299       C  0.03905466  0.46649955  0.88112688     0.19800
C1300       C  0.05686239  0.44505281  0.89187111     0.22500
C1301       C  0.08605916  0.45012305  0.89891572    -0.39500
C1302       C  0.09566242  0.47813204  0.89394227     0.21300
N1303       N  0.09030021  0.52423231  0.88250754    -0.32800
C1304       C  0.11700536  0.52004301  0.89418844    -0.10400
C1305       C  0.12151180  0.49135738  0.90120586    -0.29200
N1306       N  0.04156599  0.42118474  0.89680572    -0.45800
C1307       C  0.01401992  0.42803380  0.88933816    -0.05100
C1308       C  0.01184260  0.45594398  0.87921095    -0.22400
H1309       H  0.03411657  0.51083869  0.86866018     0.19400
H1310       H  0.09990624  0.43383948  0.90861659     0.18200
H1311       H  0.14005716  0.48198479  0.91267452     0.14400
H1312       H  0.99250460  0.46755327  0.87327421     0.14300
H1313       H  0.08072764  0.54361302  0.87680817     0.32500
H1314       H  0.04893079  0.40224270  0.90675794     0.35200
C1315       C  0.03833689  0.98637808  0.88817629     0.20800
C1316       C  0.04460133  0.95777023  0.88300905    -0.39000
C1317       C  0.07319966  0.94997251  0.88731497     0.19800
C1318       C  0.09420682  0.96898909  0.89662260     0.22500
C1319       C  0.08788318  0.99792661  0.90181011    -0.39500
C1320       C  0.05903629  0.00594512  0.89692192     0.21300
N1321       N  0.01235174  0.99840759  0.88706040    -0.32800
C1322       C  0.01609051  0.02596585  0.89506247    -0.10400
C1323       C  0.04502189  0.03172411  0.90116055    -0.29200
N1324       N  0.11916278  0.95525439  0.90204983    -0.45800
C1325       C  0.11354404  0.92747911  0.89612364    -0.05100
C1326       C  0.08531172  0.92358311  0.88639292    -0.22400
H1327       H  0.02820755  0.94252084  0.87671005     0.19400
H1328       H  0.10397968  0.01287186  0.90978708     0.18200
H1329       H  0.05420034  0.05150979  0.90943960     0.14400
H1330       H  0.07441480  0.90372124  0.88189868     0.14300
H1331       H  0.99295804  0.98819291  0.88222837     0.32500
H1332       H  0.13801953  0.96385083  0.91146206     0.35200
C1333       C  0.09201202  0.75144561  0.95727251     0.20800
C1334       C  0.08320653  0.72676690  0.94099831    -0.39000
C1335       C  0.09312987  0.70113805  0.95382370     0.19800
C1336       C  0.10998820  0.70022679  0.98141620     0.22500
C1337       C  0.11777064  0.72470831  0.99838137    -0.39500
C1338       C  0.10861590  0.75025122  0.98506279     0.21300
N1339       N  0.09309463  0.77750609  0.94444044    -0.32800
C1340       C  0.11148289  0.79229033  0.96334142    -0.10400
C1341       C  0.12057184  0.77644110  0.98957638    -0.29200
N1342       N  0.12305143  0.67503383  0.98381774    -0.45800
C1343       C  0.11507747  0.66003611  0.95735653    -0.05100
C1344       C  0.09559745  0.67509687  0.93862830    -0.22400
H1345       H  0.07286364  0.72763865  0.91758420     0.19400
H1346       H  0.13334061  0.72410529  0.01776234     0.18200
H1347       H  0.13772453  0.78169972  0.00616215     0.14400
H1348       H  0.08815388  0.66955040  0.91458854     0.14300
H1349       H  0.08588796  0.78327120  0.92146211     0.32500
H1350       H  0.13925842  0.66972790  0.00012519     0.35200
C1351       C  0.16617735  0.57124256  0.57230909     0.20800
C1352       C  0.15008581  0.56830519  0.60087423    -0.39000
C1353       C  0.16368820  0.57686762  0.62943586     0.19800
C1354       C  0.19131653  0.58755785  0.62971780     0.22500
C1355       C  0.20750210  0.59055934  0.60094727    -0.39500
C1356       C  0.19378545  0.58200003  0.57214725     0.21300
N1357       N  0.15720117  0.56606911  0.54205058    -0.32800
C1358       C  0.17892489  0.57385966  0.52208994    -0.10400
C1359       C  0.20238143  0.58365468  0.53994936    -0.29200
N1360       N  0.19973500  0.59275719  0.66041223    -0.45800
C1361       C  0.17731982  0.58504136  0.67959050    -0.05100
C1362       C  0.15441987  0.57529841  0.66106805    -0.22400
H1363       H  0.12846245  0.55996614  0.60084092     0.19400
H1364       H  0.22907716  0.59900068  0.60097716     0.18200
H1365       H  0.22210438  0.59262675  0.53064096     0.14400
H1366       H  0.13435740  0.56653299  0.66971541     0.14300
H1367       H  0.13673559  0.55931574  0.53529539     0.32500
H1368       H  0.21997584  0.59953534  0.66792463     0.35200
C1369       C  0.08739671  0.48377490  0.80673234     0.20800
C1370       C  0.07969293  0.45557289  0.81169453    -0.39000
C1371       C  0.05081327  0.44921418  0.80661847     0.19800
C1372       C  0.03087147  0.46919912  0.79692597     0.22500
C1373       C  0.03873491  0.49758134  0.79149144    -0.39500
C1374       C  0.06782470  0.50410526  0.79698015     0.21300
N1375       N  0.11374631  0.49474815  0.80941684    -0.32800
C1376       C  0.11131785  0.52228015  0.80097652    -0.10400
C1377       C  0.08295686  0.52905786  0.79314591    -0.29200
N1378       N  0.00518341  0.45687864  0.79163995    -0.45800
C1379       C  0.00927961  0.42892565  0.79778514    -0.05100
C1380       C  0.03726898  0.42359890  0.80766980    -0.22400
H1381       H  0.09516209  0.43962970  0.81874816     0.19400
H1382       H  0.02351242  0.51326098  0.78317484     0.18200
H1383       H  0.07483866  0.54906628  0.78434462     0.14400
H1384       H  0.04702931  0.40322822  0.81254449     0.14300
H1385       H  0.13252867  0.48381567  0.81530780     0.32500
H1386       H  0.98683502  0.46640234  0.78211181     0.35200
C1387       C  0.53734650  0.48962765  0.80303141     0.20800
C1388       C  0.54492014  0.46228017  0.81258067    -0.39000
C1389       C  0.57305564  0.45393586  0.80546493     0.19800
C1390       C  0.59230607  0.47120711  0.78940832     0.22500
C1391       C  0.58450288  0.49861511  0.77917109    -0.39500
C1392       C  0.55621505  0.50725298  0.78686503     0.21300
N1393       N  0.51142055  0.50170498  0.80613496    -0.32800
C1394       C  0.51322351  0.52717607  0.79149325    -0.10400
C1395       C  0.54096075  0.53161444  0.77925131    -0.29200
N1396       N  0.61693334  0.45699352  0.78313480    -0.45800
C1397       C  0.61294415  0.43058938  0.79519853    -0.05100
C1398       C  0.58600973  0.42812548  0.80962976    -0.22400
H1399       H  0.52979317  0.44831023  0.82437057     0.19400
H1400       H  0.59907211  0.51189082  0.76557439     0.18200
H1401       H  0.54843167  0.54939361  0.76514139     0.14400
H1402       H  0.57629147  0.40922125  0.81947803     0.14300
H1403       H  0.49312261  0.49252787  0.81634008     0.32500
H1404       H  0.63429285  0.46399086  0.76921919     0.35200
C1405       C  0.28695067  0.49097144  0.75991743     0.20800
C1406       C  0.31168175  0.48992714  0.74045561    -0.39000
C1407       C  0.33787272  0.49044481  0.75689131     0.19800
C1408       C  0.33938190  0.49125828  0.79048151     0.22500
C1409       C  0.31462186  0.49116117  0.80995964    -0.39500
C1410       C  0.28842753  0.49138259  0.79350659     0.21300
N1411       N  0.26092161  0.49950251  0.75012186    -0.32800
C1412       C  0.24620099  0.50638685  0.77748065    -0.10400
C1413       C  0.26215580  0.50045214  0.80502786    -0.29200
N1414       N  0.36535325  0.50022935  0.79997515    -0.45800
C1415       C  0.37990427  0.50630255  0.77239332    -0.05100
C1416       C  0.36402171  0.49913532  0.74509381    -0.22400
H1417       H  0.31062514  0.49278688  0.71445673     0.19400
H1418       H  0.31567069  0.49492916  0.83586633     0.18200
H1419       H  0.25721248  0.50698307  0.82968365     0.14400
H1420       H  0.36872981  0.50497286  0.72028094     0.14300
H1421       H  0.25525967  0.50470773  0.72641305     0.32500
H1422       H  0.37087324  0.50654571  0.82346629     0.35200
C1423       C  0.18569971  0.86499852  0.57420730     0.20800
C1424       C  0.19841073  0.85256865  0.60154903    -0.39000
C1425       C  0.18293902  0.85539258  0.63085491     0.19800
C1426       C  0.15665334  0.86913495  0.63254507     0.22500
C1427       C  0.14406624  0.88160135  0.60534478    -0.39500
C1428       C  0.15968133  0.87916738  0.57629664     0.21300
N1429       N  0.19504616  0.86389545  0.54320727    -0.32800
C1430       C  0.17469327  0.87735712  0.52555160    -0.10400
C1431       C  0.15259608  0.88752614  0.54550640    -0.29200
N1432       N  0.14704359  0.87056680  0.66328259    -0.45800
C1433       C  0.16754738  0.85823116  0.68162748    -0.05100
C1434       C  0.19018439  0.84818654  0.66221351    -0.22400
H1435       H  0.21890806  0.84172384  0.60016785     0.19400
H1436       H  0.12363502  0.89257475  0.60674327     0.18200
H1437       H  0.13270247  0.89740685  0.53808189     0.14400
H1438       H  0.21022969  0.83899321  0.67020660     0.14300
H1439       H  0.21298029  0.85287163  0.53434643     0.32500
H1440       H  0.12875413  0.88136527  0.67156154     0.35200
C1441       C  0.02524902  0.98470802  0.79959339     0.20800
C1442       C  0.03159546  0.95581303  0.79432766    -0.39000
C1443       C  0.06004740  0.94750911  0.80083039     0.19800
C1444       C  0.08045440  0.96675007  0.81123192     0.22500
C1445       C  0.07418964  0.99539239  0.81640345    -0.39500
C1446       C  0.04588446  0.00350035  0.81044559     0.21300
N1447       N  0.00076554  0.99864453  0.79254719    -0.32800
C1448       C  0.00621564  0.02636042  0.79897168    -0.10400
C1449       C  0.03393352  0.03002952  0.81060805    -0.29200
N1450       N  0.10633452  0.95454698  0.81305601    -0.45800
C1451       C  0.10277916  0.92732510  0.80346544    -0.05100
C1452       C  0.07408499  0.92186127  0.79604759    -0.22400
H1453       H  0.01587793  0.94114175  0.78484921     0.19400
H1454       H  0.09042826  0.01046312  0.82370623     0.18200
H1455       H  0.04470064  0.04980830  0.81591833     0.14400
H1456       H  0.06522885  0.90255067  0.78600577     0.14300
H1457       H  0.98238305  0.99019250  0.78185577     0.32500
H1458       H  0.12563662  0.96460350  0.81871974     0.35200
C1459       C  0.53880892  0.96431602  0.79868425     0.20800
C1460       C  0.54599533  0.99252086  0.80475425    -0.39000
C1461       C  0.57450057  0.99974109  0.79867432     0.19800
C1462       C  0.59467506  0.98051299  0.78712198     0.22500
C1463       C  0.58735122  0.95198749  0.78071792    -0.39500
C1464       C  0.55848180  0.94460367  0.78702878     0.21300
N1465       N  0.51246709  0.95328902  0.80030765    -0.32800
C1466       C  0.51472350  0.92635645  0.78915568    -0.10400
C1467       C  0.54325169  0.91985148  0.78092451    -0.29200
N1468       N  0.61968524  0.99383659  0.78062961    -0.45800
C1469       C  0.61491162  0.02159277  0.78807964    -0.05100
C1470       C  0.58713067  0.02582792  0.79971405    -0.22400
H1471       H  0.53022050  0.00801062  0.81276846     0.19400
H1472       H  0.60262862  0.93700680  0.77049454     0.18200
H1473       H  0.55128403  0.90057663  0.76966866     0.14400
H1474       H  0.57682263  0.04578721  0.80583301     0.14300
H1475       H  0.49363675  0.96410810  0.80677546     0.32500
H1476       H  0.63800896  0.98505507  0.76974117     0.35200
C1477       C  0.33108530  0.95158653  0.73735953     0.20800
C1478       C  0.30533458  0.94779851  0.72061332    -0.39000
C1479       C  0.28029367  0.94913924  0.73942741     0.19800
C1480       C  0.28074275  0.95473701  0.77249978     0.22500
C1481       C  0.30642301  0.95993597  0.78895879    -0.39500
C1482       C  0.33158138  0.95779631  0.77031575     0.21300
N1483       N  0.35682455  0.94208602  0.72731560    -0.32800
C1484       C  0.37346136  0.94146917  0.75405499    -0.10400
C1485       C  0.35894946  0.95230605  0.78101741    -0.29200
N1486       N  0.25580136  0.94713168  0.78634205    -0.45800
C1487       C  0.23987975  0.93593970  0.76212684    -0.05100
C1488       C  0.25396174  0.93774069  0.73239699    -0.22400
H1489       H  0.30508383  0.94013855  0.69578668     0.19400
H1490       H  0.30705573  0.96137151  0.81516787     0.18200
H1491       H  0.36563359  0.95085682  0.80605720     0.14400
H1492       H  0.24773592  0.92772730  0.70980008     0.14300
H1493       H  0.36135872  0.93239779  0.70496887     0.32500
H1494       H  0.25154900  0.94587132  0.81120177     0.35200
C1495       C  0.42836802  0.58751527  0.56243676     0.20800
C1496       C  0.41334088  0.59685808  0.59034023    -0.39000
C1497       C  0.42721674  0.59225114  0.62012945     0.19800
C1498       C  0.45405814  0.57964101  0.62170207     0.22500
C1499       C  0.46898334  0.57040774  0.59400670    -0.39500
C1500       C  0.45507939  0.57471587  0.56450980     0.21300
N1501       N  0.42071116  0.59039640  0.53113014    -0.32800
C1502       C  0.44289560  0.57943681  0.51347528    -0.10400
C1503       C  0.46450320  0.56929064  0.53350899    -0.29200
N1504       N  0.46243391  0.57683212  0.65254372    -0.45800
C1505       C  0.44078493  0.58741374  0.67110339    -0.05100
C1506       C  0.41836663  0.59737475  0.65179926    -0.22400
H1507       H  0.39244741  0.60688128  0.58897123     0.19400
H1508       H  0.48997077  0.56055684  0.59533327     0.18200
H1509       H  0.48521695  0.56076935  0.52627699     0.14400
H1510       H  0.39797233  0.60607270  0.65984237     0.14300
H1511       H  0.40244386  0.60062243  0.52234229     0.32500
H1512       H  0.48126679  0.56711507  0.66054570     0.35200
C1513       C  0.54358732  0.50255826  0.88097658     0.20800
C1514       C  0.57249830  0.49609118  0.87555185    -0.39000
C1515       C  0.58063910  0.46832763  0.88234563     0.19800
C1516       C  0.56154487  0.44822755  0.89366040     0.22500
C1517       C  0.53242025  0.45485326  0.89951940    -0.39500
C1518       C  0.52414338  0.48290570  0.89260586     0.21300
N1519       N  0.53144820  0.52812835  0.87857178    -0.32800
C1520       C  0.50413645  0.52528364  0.88929916    -0.10400
C1521       C  0.49846910  0.49723776  0.89790391    -0.29200
N1522       N  0.57537456  0.42365901  0.89952617    -0.45800
C1523       C  0.60332074  0.42860798  0.89202167    -0.05100
C1524       C  0.60731281  0.45612256  0.88116566    -0.22400
H1525       H  0.58770902  0.51176407  0.86722133     0.19400
H1526       H  0.51755639  0.43959010  0.90946343     0.18200
H1527       H  0.47916689  0.48906310  0.90912760     0.14400
H1528       H  0.62733488  0.46620586  0.87456120     0.14300
H1529       H  0.54178422  0.54689525  0.87212696     0.32500
H1530       H  0.56673643  0.40532998  0.90964971     0.35200
C1531       C  0.42381520  0.87096682  0.55790621     0.20800
C1532       C  0.41630964  0.85556569  0.58575227    -0.39000
C1533       C  0.42931696  0.86446453  0.61474685     0.19800
C1534       C  0.44840133  0.88686033  0.61569850     0.22500
C1535       C  0.45564623  0.90238353  0.58804542    -0.39500
C1536       C  0.44263511  0.89358006  0.55920065     0.21300
N1537       N  0.41714835  0.86477438  0.52696905    -0.32800
C1538       C  0.43221825  0.88329122  0.50856908    -0.10400
C1539       C  0.44786730  0.90194255  0.52787134    -0.29200
N1540       N  0.45778864  0.89132647  0.64596134    -0.45800
C1541       C  0.44436629  0.87196324  0.66471729    -0.05100
C1542       C  0.42643297  0.85469023  0.64612931    -0.22400
H1543       H  0.40193538  0.83761512  0.58477893     0.19400
H1544       H  0.47090549  0.91961905  0.58879582     0.18200
H1545       H  0.46347552  0.91739564  0.51993195     0.14400
H1546       H  0.41229798  0.83813769  0.65461503     0.14300
H1547       H  0.40540928  0.84732898  0.51879542     0.32500
H1548       H  0.47144883  0.90751664  0.65366327     0.35200
C1549       C  0.54605774  0.95218159  0.87839155     0.20800
C1550       C  0.57499623  0.95760568  0.87233021    -0.39000
C1551       C  0.58322884  0.98584420  0.87525055     0.19800
C1552       C  0.56426922  0.00737417  0.88371312     0.22500
C1553       C  0.53503239  0.00186992  0.88997566    -0.39500
C1554       C  0.52663251  0.97331590  0.88685402     0.21300
N1555       N  0.53367033  0.92671454  0.87891777    -0.32800
C1556       C  0.50607142  0.93124063  0.88793289    -0.10400
C1557       C  0.50063396  0.96011281  0.89296097    -0.29200
N1558       N  0.57843790  0.03207184  0.88732904    -0.45800
C1559       C  0.60645149  0.02569759  0.88138435    -0.05100
C1560       C  0.61006312  0.99725726  0.87336811    -0.22400
H1561       H  0.59020042  0.94087875  0.86653446     0.19400
H1562       H  0.52018124  0.01837001  0.89754014     0.18200
H1563       H  0.48096535  0.96985378  0.90173667     0.14400
H1564       H  0.63003834  0.98597790  0.86908300     0.14300
H1565       H  0.54378392  0.90720635  0.87475108     0.32500
H1566       H  0.56999896  0.05138063  0.89557882     0.35200
C1567       C  0.51083544  0.75711288  0.97197741     0.20800
C1568       C  0.50236416  0.73243662  0.98775689    -0.39000
C1569       C  0.51004005  0.70706108  0.97240103     0.19800
C1570       C  0.52615042  0.70613623  0.94395877     0.22500
C1571       C  0.53609142  0.73087372  0.92917412    -0.39500
C1572       C  0.52745931  0.75638608  0.94389001     0.21300
N1573       N  0.49789822  0.78234412  0.97542865    -0.32800
C1574       C  0.50569552  0.79741134  0.94912357    -0.10400
C1575       C  0.52509667  0.78253109  0.92965080    -0.29200
N1576       N  0.52345837  0.68077546  0.92930249    -0.45800
C1577       C  0.50474800  0.66620008  0.94795299    -0.05100
C1578       C  0.49677420  0.68139860  0.97550590    -0.22400
H1579       H  0.48695869  0.73300141  0.00754548     0.19400
H1580       H  0.54592201  0.73038160  0.90530311     0.18200
H1581       H  0.53192016  0.78801039  0.90535029     0.14400
H1582       H  0.47992112  0.67612029  0.99261651     0.14300
H1583       H  0.48143971  0.78738455  0.99186623     0.32500
H1584       H  0.53029661  0.67539902  0.90585357     0.35200
loop_ 
_geom_bond_atom_site_label_1 
_geom_bond_atom_site_label_2 
_geom_bond_distance 
_geom_bond_site_symmetry_2 
_ccdc_geom_bond_type 
In1           O3   2.274       .  S
In1           O4   2.201       .  S
In1          O12   2.233       .  S
In1           O6   2.248       .  S
In1           O8   2.288       .  S
In1           O9   2.246       .  S
In1          O10   2.226       .  S
In1          O13   2.235       .  S
C2            O8   1.262       .  A
C2           O10   1.255       .  A
C2          C108   1.517       .  S
O3           C11   1.267       .  A
O4           C11   1.258       .  A
C5           O12   1.260       .  A
C5            O6   1.262       .  A
C5         C1538   1.466       .  S
C7            O9   1.255       .  A
C7           O13   1.256       .  A
C7          C782   1.455       .  S
C11         C764   1.466       .  S
In14         O16   2.218       .  S
In14         O17   2.245       .  S
In14         O25   2.270       .  S
In14         O19   2.209       .  S
In14         O21   2.282       .  S
In14         O22   2.199       .  S
In14         O23   2.215       .  S
In14         O26   2.278       .  S
C15          O21   1.265       .  A
C15          O23   1.256       .  A
C15         C105   1.519       .  S
O16          C24   1.258       .  A
O17          C24   1.258       .  A
C18          O25   1.267       .  A
C18          O19   1.260       .  A
C18        C1502   1.469       .  S
C20          O22   1.256       .  A
C20          O26   1.265       .  A
C20         C728   1.465       .  S
C24         C785   1.454       .  S
In27         O29   2.295       .  S
In27         O30   2.208       .  S
In27         O38   2.234       .  S
In27         O32   2.264       .  S
In27         O34   2.308       .  S
In27         O35   2.249       .  S
In27         O36   2.219       .  S
In27         O39   2.237       .  S
C28          O34   1.264       .  A
C28          O36   1.255       .  A
C28         C108   1.523       .  S
O29          C37   1.265       .  A
O30          C37   1.256       .  A
C31          O38   1.260       .  A
C31          O32   1.264       .  A
C31         C749   1.469       .  S
C33          O35   1.258       .  A
C33          O39   1.257       .  A
C33         C692   1.458       .  S
C37         C674   1.472       .  S
In40         O42   2.242       .  S
In40         O43   2.252       .  S
In40         O51   2.241       .  S
In40         O45   2.254       .  S
In40         O47   2.306       .  S
In40         O48   2.211       .  S
In40         O49   2.208       .  S
In40         O52   2.285       .  S
C41          O47   1.263       .  A
C41          O49   1.252       .  A
C41         C107   1.517       .  S
O42          C50   1.255       .  A
O43          C50   1.257       .  A
C44          O51   1.263       .  A
C44          O45   1.265       .  A
C44         C641   1.473       .  S
C46          O48   1.253       .  A
C46          O52   1.263       .  A
C46         C659   1.465       .  S
C50         C695   1.459       .  S
In53         O55   2.235       .  S
In53         O56   2.250       .  S
In53         O64   2.241       .  S
In53         O58   2.275       .  S
In53         O60   2.270       .  S
In53         O61   2.231       .  S
In53         O62   2.273       .  S
In53         O65   2.282       .  S
C54          O60   1.262       .  A
C54          O62   1.255       .  A
C54         C105   1.526       .  S
O55          C63   1.259       .  A
O56          C63   1.260       .  A
C57          O64   1.257       .  A
C57          O58   1.260       .  A
C57         C713   1.472       .  S
C59          O61   1.258       .  A
C59          O65   1.264       .  A
C59         C602   1.474       .  S
C63         C623   1.463       .  S
In66         O68   2.265       .  S
In66         O69   2.230       .  S
In66         O77   2.235       .  S
In66         O71   2.276       .  S
In66         O73   2.263       .  S
In66         O74   2.238       .  S
In66         O75   2.256       .  S
In66         O78   2.239       .  S
C67          O73   1.262       .  A
C67          O75   1.256       .  A
C67         C106   1.522       .  S
O68          C76   1.263       .  A
O69          C76   1.258       .  A
C70          O77   1.256       .  A
C70          O71   1.261       .  A
C70         C569   1.472       .  S
C72          O74   1.260       .  A
C72          O78   1.259       .  A
C72         C620   1.461       .  S
C76         C584   1.468       .  S
In79         O81   2.220       .  S
In79         O82   2.253       .  S
In79         O90   2.226       .  S
In79         O84   2.266       .  S
In79         O86   2.296       .  S
In79         O87   2.192       .  S
In79         O88   2.221       .  S
In79         O91   2.277       .  S
C80          O86   1.265       .  A
C80          O88   1.256       .  A
C80         C107   1.522       .  S
O81          C89   1.258       .  A
O82          C89   1.257       .  A
C83          O90   1.260       .  A
C83          O84   1.266       .  A
C83        C1430   1.472       .  S
C85          O87   1.257       .  A
C85          O91   1.266       .  A
C85         C533   1.465       .  S
C89         C548   1.457       .  S
In92         O94   2.297       .  S
In92         O95   2.202       .  S
In92        O103   2.216       .  S
In92         O97   2.275       .  S
In92         O99   2.292       .  S
In92        O100   2.253       .  S
In92        O101   2.223       .  S
In92        O104   2.230       .  S
C93          O99   1.265       .  A
C93         O101   1.256       .  A
C93         C106   1.524       .  S
O94         C102   1.265       .  A
O95         C102   1.256       .  A
C96         O103   1.260       .  A
C96          O97   1.267       .  A
C96        C1358   1.472       .  S
C98         O100   1.258       .  A
C98         O104   1.257       .  A
C98         C551   1.459       .  S
C102        C512   1.472       .  S
C105        C476   1.536       .  S
C105        C494   1.538       .  S
C106        C458   1.532       .  S
C106        C497   1.540       .  S
C107        C440   1.534       .  S
C107        C461   1.532       .  S
C108        C443   1.534       .  S
C108        C479   1.535       .  S
In109       O111   2.221       .  S
In109       O112   2.252       .  S
In109       O120   2.231       .  S
In109       O114   2.255       .  S
In109       O116   2.299       .  S
In109       O117   2.201       .  S
In109       O118   2.215       .  S
In109       O121   2.285       .  S
C110        O116   1.264       .  A
C110        O118   1.255       .  A
C110        C216   1.519       .  S
O111        C119   1.254       .  A
O112        C119   1.258       .  A
C113        O120   1.260       .  A
C113        O114   1.265       .  A
C113       C1196   1.467       .  S
C115        O117   1.256       .  A
C115        O121   1.265       .  A
C115        C515   1.468   1_655  S
C119        C422   1.453       .  S
In122       O124   2.277       .  S
In122       O125   2.205       .  S
In122       O133   2.240       .  S
In122       O127   2.243       .  S
In122       O129   2.315       .  S
In122       O130   2.242       .  S
In122       O131   2.208       .  S
In122       O134   2.235       .  S
C123        O129   1.262       .  A
C123        O131   1.253       .  A
C123        C213   1.521       .  S
O124        C132   1.265       .  A
O125        C132   1.255       .  A
C126        O133   1.262       .  A
C126        O127   1.263       .  A
C126       C1181   1.467       .  S
C128        O130   1.256       .  A
C128        O134   1.257       .  A
C128        C425   1.454       .  S
C132        C731   1.464       .  S
In135       O137   2.238       .  S
In135       O138   2.255       .  S
In135       O146   2.241       .  S
In135       O140   2.257       .  S
In135       O142   2.302       .  S
In135       O143   2.192   1_655  S
In135       O144   2.219       .  S
In135       O147   2.288       .  S
C136        O142   1.264       .  A
C136        O144   1.255       .  A
C136        C216   1.521       .  S
O137        C145   1.256       .  A
O138        C145   1.256       .  A
C139        O146   1.260       .  A
C139        O140   1.264       .  A
C139        C407   1.471       .  S
C141        O143   1.257   1_655  A
C141        O147   1.267       .  A
C141        C587   1.468   1_655  S
C145        C368   1.460   1_655  S
In148       O150   2.277       .  S
In148       O151   2.203       .  S
In148       O159   2.214       .  S
In148       O153   2.266       .  S
In148       O155   2.294       .  S
In148       O156   2.237   1_655  S
In148       O157   2.220       .  S
In148       O160   2.233       .  S
C149        O155   1.266       .  A
C149        O157   1.256       .  A
C149        C215   1.523       .  S
O150        C158   1.265       .  A
O151        C158   1.256       .  A
C152        O159   1.259       .  A
C152        O153   1.267       .  A
C152        C350   1.468       .  S
C154        O156   1.258   1_655  A
C154        O160   1.260       .  A
C154        C371   1.456   1_655  S
C158        C656   1.467   1_655  S
In161       O163   2.267       .  S
In161       O164   2.207       .  S
In161       O172   2.224       .  S
In161       O166   2.256       .  S
In161       O168   2.297       .  S
In161       O169   2.247       .  S
In161       O170   2.210       .  S
In161       O173   2.223       .  S
C162        O168   1.266       .  A
C162        O170   1.257       .  A
C162        C213   1.521       .  S
O163        C171   1.265       .  A
O164        C171   1.259       .  A
C165        O172   1.259       .  A
C165        O166   1.266       .  A
C165        C386   1.468       .  S
C167        O169   1.258       .  A
C167        O173   1.258       .  A
C167        C335   1.455       .  S
C171        C605   1.467       .  S
In174       O176   2.225       .  S
In174       O177   2.235       .  S
In174       O185   2.210       .  S
In174       O179   2.266       .  S
In174       O181   2.292       .  S
In174       O182   2.203       .  S
In174       O183   2.225       .  S
In174       O186   2.290       .  S
C175        O181   1.266       .  A
C175        O183   1.257       .  A
C175        C214   1.522       .  S
O176        C184   1.258       .  A
O177        C184   1.258       .  A
C178        O185   1.258       .  A
C178        O179   1.267       .  A
C178        C317   1.467       .  S
C180        O182   1.257       .  A
C180        O186   1.266       .  A
C180        C677   1.472       .  S
C184        C332   1.452       .  S
In187       O189   2.291       .  S
In187       O190   2.218       .  S
In187       O198   2.252       .  S
In187       O192   2.241       .  S
In187       O194   2.324       .  S
In187       O195   2.250       .  S
In187       O196   2.227       .  S
In187       O199   2.237       .  S
C188        O194   1.263       .  A
C188        O196   1.254       .  A
C188        C215   1.528       .  S
O189        C197   1.263       .  A
O190        C197   1.254       .  A
C191        O198   1.262       .  A
C191        O192   1.262       .  A
C191       C1145   1.469       .  S
C193        O195   1.260       .  A
C193        O199   1.257       .  A
C193        C296   1.460       .  S
C197        C530   1.468   1_655  S
In200       O202   2.236       .  S
In200       O203   2.258       .  S
In200       O211   2.248       .  S
In200       O205   2.240       .  S
In200       O207   2.306       .  S
In200       O208   2.196       .  S
In200       O209   2.223       .  S
In200       O212   2.282       .  S
C201        O207   1.263       .  A
C201        O209   1.254       .  A
C201        C214   1.522       .  S
O202        C210   1.255       .  A
O203        C210   1.258       .  A
C204        O211   1.262       .  A
C204        O205   1.263       .  A
C204       C1106   1.468       .  S
C206        O208   1.255       .  A
C206        O212   1.264       .  A
C206        C767   1.464       .  S
C210        C299   1.459       .  S
C213        C263   1.537       .  S
C213        C281   1.541       .  S
C214        C242   1.535       .  S
C214        C278   1.537       .  S
C215        C224   1.539       .  S
C215        C245   1.536       .  S
C216        C227   1.537       .  S
C216        C260   1.533       .  S
C217        C222   1.381       .  A
C217        C218   1.413       .  A
C217        N223   1.352       .  A
C218        C219   1.413       .  A
C218        H229   1.082       .  S
C219        C228   1.389       .  A
C219        C220   1.382       .  A
C220        C221   1.404       .  A
C220        N226   1.343       .  A
C221        C222   1.403       .  A
C221        H230   1.083       .  S
C222        C225   1.377       .  A
N223        C224   1.363       .  A
N223        H233   1.044       .  S
C224        C225   1.404       .  A
C225        H231   1.082       .  S
N226        C227   1.361       .  A
N226        H234   1.044       .  S
C227        C228   1.404       .  A
C228        H232   1.082       .  S
C235        C240   1.382       .  A
C235        C236   1.402       .  A
C235        N241   1.342       .  A
C236        C237   1.401       .  A
C236        H247   1.083       .  S
C237        C246   1.376       .  A
C237        C238   1.381       .  A
C238        C239   1.412       .  A
C238        N244   1.350       .  A
C239        C240   1.411       .  A
C239        H248   1.082       .  S
C240        C243   1.387       .  A
N241        C242   1.360       .  A
N241        H251   1.044       .  S
C242        C243   1.404       .  A
C243        H249   1.082       .  S
N244        C245   1.362       .  A
N244        H252   1.044       .  S
C245        C246   1.402       .  A
C246        H250   1.082       .  S
C253        C258   1.382       .  A
C253        C254   1.404       .  A
C253        N259   1.345       .  A
C254        C255   1.404       .  A
C254        H265   1.083       .  S
C255        C264   1.375       .  A
C255        C256   1.382       .  A
C256        C257   1.408       .  A
C256        N262   1.350       .  A
C257        C258   1.409       .  A
C257        H266   1.082       .  S
C258        C261   1.383       .  A
N259        C260   1.362       .  A
N259        H269   1.044       .  S
C260        C261   1.401       .  A
C261        H267   1.082       .  S
N262        C263   1.360       .  A
N262        H270   1.044       .  S
C263        C264   1.406       .  A
C264        H268   1.082       .  S
C271        C276   1.382       .  A
C271        C272   1.406       .  A
C271        N277   1.348       .  A
C272        C273   1.407       .  A
C272        H283   1.083       .  S
C273        C282   1.377       .  A
C273        C274   1.381       .  A
C274        C275   1.410       .  A
C274        N280   1.352       .  A
C275        C276   1.411       .  A
C275        H284   1.082       .  S
C276        C279   1.383       .  A
N277        C278   1.362       .  A
N277        H287   1.044       .  S
C278        C279   1.403       .  A
C279        H285   1.082       .  S
N280        C281   1.362       .  A
N280        H288   1.044       .  S
C281        C282   1.406       .  A
C282        H286   1.082       .  S
C289        C294   1.386       .  A
C289        C290   1.399       .  A
C289        N295   1.340       .  A
C290        C291   1.399       .  A
C290        H301   1.083       .  S
C291        C300   1.372       .  A
C291        C292   1.388       .  A
C292        C293   1.401   1_545  A
C292        N298   1.342       .  A
C293        C294   1.399   1_565  A
C293        H302   1.083       .  S
C294        C297   1.376       .  A
N295        C296   1.353       .  A
N295        H305   1.045       .  S
C296        C297   1.391       .  A
C297        H303   1.083       .  S
N298        C299   1.352       .  A
N298        H306   1.045       .  S
C299        C300   1.391       .  A
C300        H304   1.083       .  S
C307        C312   1.384       .  A
C307        C308   1.406       .  A
C307        N313   1.343       .  A
C308        C309   1.404       .  A
C308        H319   1.082       .  S
C309        C318   1.383       .  A
C309        C310   1.384       .  A
C310        C311   1.401       .  A
C310        N316   1.339       .  A
C311        C312   1.399       .  A
C311        H320   1.082       .  S
C312        C315   1.377       .  A
N313        C314   1.356       .  A
N313        H323   1.045       .  S
C314        C996   1.468   1_554  S
C314        C315   1.394       .  A
C315        H321   1.083       .  S
N316        C317   1.354       .  A
N316        H324   1.045       .  S
C317        C318   1.397       .  A
C318        H322   1.082       .  S
C325        C330   1.388       .  A
C325        C326   1.400       .  A
C325        N331   1.341       .  A
C326        C327   1.399       .  A
C326        H337   1.083       .  S
C327        C336   1.377       .  A
C327        C328   1.388       .  A
C328        C329   1.397       .  A
C328        N334   1.338       .  A
C329        C330   1.395       .  A
C329        H338   1.083       .  S
C330        C333   1.371       .  A
N331        C332   1.351       .  A
N331        H341   1.045       .  S
C332        C333   1.388       .  A
C333        H339   1.083       .  S
N334        C335   1.351       .  A
N334        H342   1.045       .  S
C335        C336   1.390       .  A
C336        H340   1.083       .  S
C343        C348   1.384       .  A
C343        C344   1.403       .  A
C343        N349   1.340       .  A
C344        C345   1.401       .  A
C344        H355   1.082   1_655  S
C345        C354   1.378       .  A
C345        C346   1.384       .  A
C346        C347   1.406       .  A
C346        N352   1.343       .  A
C347        C348   1.404       .  A
C347        H356   1.082       .  S
C348        C351   1.383       .  A
N349        C350   1.355       .  A
N349        H359   1.045       .  S
C350        C351   1.396       .  A
C351        H357   1.082       .  S
N352        C353   1.356       .  A
N352        H360   1.045       .  S
C353        C983   1.469   1_554  S
C353        C354   1.394       .  A
C354        H358   1.082       .  S
C361        C366   1.388       .  A
C361        C362   1.398       .  A
C361        N367   1.339       .  A
C362        C363   1.396       .  A
C362        H373   1.083   1_455  S
C363        C372   1.373       .  A
C363        C364   1.388       .  A
C364        C365   1.402       .  A
C364        N370   1.342       .  A
C365        C366   1.400       .  A
C365        H374   1.083       .  S
C366        C369   1.378       .  A
N367        C368   1.351       .  A
N367        H377   1.045   1_455  S
C368        C369   1.392       .  A
C369        H375   1.083       .  S
N370        C371   1.352       .  A
N370        H378   1.045       .  S
C371        C372   1.388       .  A
C372        H376   1.083   1_455  S
C379        C384   1.384       .  A
C379        C380   1.403       .  A
C379        N385   1.342       .  A
C380        C381   1.402       .  A
C380        H391   1.082       .  S
C381        C390   1.377       .  A
C381        C382   1.384       .  A
C382        C383   1.404       .  A
C382        N388   1.343       .  A
C383        C384   1.403       .  A
C383        H392   1.082       .  S
C384        C387   1.380       .  A
N385        C386   1.356       .  A
N385        H395   1.045       .  S
C386        C387   1.394       .  A
C387        H393   1.082       .  S
N388        C389   1.355       .  A
N388        H396   1.045       .  S
C389        C918   1.467   1_554  S
C389        C390   1.395       .  A
C390        H394   1.083       .  S
C397        C402   1.384       .  A
C397        C398   1.402       .  A
C397        N403   1.341       .  A
C398        C399   1.401       .  A
C398        H409   1.082       .  S
C399        C408   1.377       .  A
C399        C400   1.384       .  A
C400        C401   1.406       .  A
C400        N406   1.345       .  A
C401        C402   1.404       .  A
C401        H410   1.082       .  S
C402        C405   1.381       .  A
N403        C404   1.354       .  A
N403        H413   1.045       .  S
C404        C905   1.467   1_554  S
C404        C405   1.396       .  A
C405        H411   1.082       .  S
N406        C407   1.356       .  A
N406        H414   1.045       .  S
C407        C408   1.395       .  A
C408        H412   1.083       .  S
C415        C420   1.388       .  A
C415        C416   1.396       .  A
C415        N421   1.336       .  A
C416        C417   1.394       .  A
C416        H427   1.083       .  S
C417        C426   1.370       .  A
C417        C418   1.387       .  A
C418        C419   1.401       .  A
C418        N424   1.341       .  A
C419        C420   1.399       .  A
C419        H428   1.083       .  S
C420        C423   1.376       .  A
N421        C422   1.350       .  A
N421        H431   1.045       .  S
C422        C423   1.391       .  A
C423        H429   1.083       .  S
N424        C425   1.353       .  A
N424        H432   1.045       .  S
C425        C426   1.388       .  A
C426        H430   1.083       .  S
C433        C438   1.382       .  A
C433        C434   1.402       .  A
C433        N439   1.341       .  A
C434        C435   1.401       .  A
C434        H445   1.083       .  S
C435        C444   1.376       .  A
C435        C436   1.382       .  A
C436        C437   1.411       .  A
C436        N442   1.348       .  A
C437        C438   1.409       .  A
C437        H446   1.082       .  S
C438        C441   1.386       .  A
N439        C440   1.361       .  A
N439        H449   1.044       .  S
C440        C441   1.402       .  A
C441        H447   1.082       .  S
N442        C443   1.361       .  A
N442        H450   1.045       .  S
C443        C444   1.402       .  A
C444        H448   1.082       .  S
C451        C456   1.382       .  A
C451        C452   1.410       .  A
C451        N457   1.347       .  A
C452        C453   1.408       .  A
C452        H463   1.082       .  S
C453        C462   1.384       .  A
C453        C454   1.382       .  A
C454        C455   1.403       .  A
C454        N460   1.342       .  A
C455        C456   1.401       .  A
C455        H464   1.083       .  S
C456        C459   1.377       .  A
N457        C458   1.362       .  A
N457        H467   1.045       .  S
C458        C459   1.401       .  A
C459        H465   1.082       .  S
N460        C461   1.360       .  A
N460        H468   1.044       .  S
C461        C462   1.403       .  A
C462        H466   1.082       .  S
C469        C474   1.382       .  A
C469        C470   1.410       .  A
C469        N475   1.348       .  A
C470        C471   1.409       .  A
C470        H481   1.082       .  S
C471        C480   1.387       .  A
C471        C472   1.382       .  A
C472        C473   1.405       .  A
C472        N478   1.343       .  A
C473        C474   1.404       .  A
C473        H482   1.083       .  S
C474        C477   1.379       .  A
N475        C476   1.361       .  A
N475        H485   1.045       .  S
C476        C477   1.404       .  A
C477        H483   1.082       .  S
N478        C479   1.362       .  A
N478        H486   1.044       .  S
C479        C480   1.403       .  A
C480        H484   1.082       .  S
C487        C492   1.381       .  A
C487        C488   1.409       .  A
C487        N493   1.349       .  A
C488        C489   1.409       .  A
C488        H499   1.082       .  S
C489        C498   1.384       .  A
C489        C490   1.382       .  A
C490        C491   1.401       .  A
C490        N496   1.340       .  A
C491        C492   1.400       .  A
C491        H500   1.083       .  S
C492        C495   1.372       .  A
N493        C494   1.362       .  A
N493        H503   1.045       .  S
C494        C495   1.403       .  A
C495        H501   1.082       .  S
N496        C497   1.361       .  A
N496        H504   1.044       .  S
C497        C498   1.404       .  A
C498        H502   1.082       .  S
C505        C510   1.384       .  A
C505        C506   1.394       .  A
C505        N511   1.335       .  A
C506        C507   1.392       .  A
C506        H517   1.083       .  S
C507        C516   1.366       .  A
C507        C508   1.383       .  A
C508        C509   1.413       .  A
C508        N514   1.351       .  A
C509        C510   1.413       .  A
C509        H518   1.082       .  S
C510        C513   1.391       .  A
N511        C512   1.351       .  A
N511        H521   1.045       .  S
C512        C513   1.402       .  A
C513        H519   1.082       .  S
N514        C515   1.360       .  A
N514        H522   1.044       .  S
C515        C516   1.389       .  A
C516        H520   1.083   1_455  S
C523        C528   1.385   1_565  A
C523        C524   1.395       .  A
C523        N529   1.336       .  A
C524        C525   1.393       .  A
C524        H535   1.083       .  S
C525        C534   1.365       .  A
C525        C526   1.384       .  A
C526        C527   1.410       .  A
C526        N532   1.349       .  A
C527        C528   1.410   1_565  A
C527        H536   1.082   1_565  S
C528        C531   1.388       .  A
N529        C530   1.351   1_565  A
N529        H539   1.045   1_455  S
C530        C531   1.399       .  A
C531        H537   1.082       .  S
N532        C533   1.358       .  A
N532        H540   1.044       .  S
C533        C534   1.390       .  A
C534        H538   1.083       .  S
C541        C546   1.388       .  A
C541        C542   1.403       .  A
C541        N547   1.344       .  A
C542        C543   1.402       .  A
C542        H553   1.083       .  S
C543        C552   1.379       .  A
C543        C544   1.387       .  A
C544        C545   1.396       .  A
C544        N550   1.338       .  A
C545        C546   1.395       .  A
C545        H554   1.083       .  S
C546        C549   1.369       .  A
N547        C548   1.353       .  A
N547        H557   1.045       .  S
C548        C549   1.388       .  A
C549        H555   1.083       .  S
N550        C551   1.350       .  A
N550        H558   1.045       .  S
C551        C552   1.392       .  A
C552        H556   1.083       .  S
C559        C564   1.384       .  A
C559        C560   1.400       .  A
C559        N565   1.339       .  A
C560        C561   1.398       .  A
C560        H571   1.083       .  S
C561        C570   1.374       .  A
C561        C562   1.384       .  A
C562        C563   1.410       .  A
C562        N568   1.348       .  A
C563        C564   1.409       .  A
C563        H572   1.082       .  S
C564        C567   1.387       .  A
N565        C566   1.354       .  A
N565        H575   1.045       .  S
C566        C888   1.472   1_554  S
C566        C567   1.399       .  A
C567        H573   1.082       .  S
N568        C569   1.358       .  A
N568        H576   1.045       .  S
C569        C570   1.393       .  A
C570        H574   1.083       .  S
C577        C582   1.385       .  A
C577        C578   1.396       .  A
C577        N583   1.339       .  A
C578        C579   1.396       .  A
C578        H589   1.082       .  S
C579        C588   1.367       .  A
C579        C580   1.384       .  A
C580        C581   1.409       .  A
C580        N586   1.350       .  A
C581        C582   1.410       .  A
C581        H590   1.082       .  S
C582        C585   1.384       .  A
N583        C584   1.352       .  A
N583        H593   1.045       .  S
C584        C585   1.398       .  A
C585        H591   1.082       .  S
N586        C587   1.358       .  A
N586        H594   1.044   1_455  S
C587        C588   1.391       .  A
C588        H592   1.083       .  S
C595        C600   1.384       .  A
C595        C596   1.397       .  A
C595        N601   1.338       .  A
C596        C597   1.395       .  A
C596        H607   1.082       .  S
C597        C606   1.370       .  A
C597        C598   1.383       .  A
C598        C599   1.411       .  A
C598        N604   1.349       .  A
C599        C600   1.411       .  A
C599        H608   1.082       .  S
C600        C603   1.388       .  A
N601        C602   1.352       .  A
N601        H611   1.045       .  S
C602        C603   1.401       .  A
C603        H609   1.082       .  S
N604        C605   1.358       .  A
N604        H612   1.044       .  S
C605        C606   1.390       .  A
C606        H610   1.083       .  S
C613        C618   1.387       .  A
C613        C614   1.400       .  A
C613        N619   1.342       .  A
C614        C615   1.399       .  A
C614        H625   1.083       .  S
C615        C624   1.374       .  A
C615        C616   1.387       .  A
C616        C617   1.401       .  A
C616        N622   1.343       .  A
C617        C618   1.400       .  A
C617        H626   1.083       .  S
C618        C621   1.375       .  A
N619        C620   1.353       .  A
N619        H629   1.045       .  S
C620        C621   1.391       .  A
C621        H627   1.083       .  S
N622        C623   1.353       .  A
N622        H630   1.045       .  S
C623        C624   1.391       .  A
C624        H628   1.083       .  S
C631        C636   1.383       .  A
C631        C632   1.408       .  A
C631        N637   1.348       .  A
C632        C633   1.408       .  A
C632        H643   1.082       .  S
C633        C642   1.383       .  A
C633        C634   1.384       .  A
C634        C635   1.401       .  A
C634        N640   1.342       .  A
C635        C636   1.401       .  A
C635        H644   1.082       .  S
C636        C639   1.374       .  A
N637        C638   1.358       .  A
N637        H647   1.045       .  S
C638        C875   1.472   1_554  S
C638        C639   1.395       .  A
C639        H645   1.083       .  S
N640        C641   1.355       .  A
N640        H648   1.045       .  S
C641        C642   1.398       .  A
C642        H646   1.082       .  S
C649        C654   1.384   1_565  A
C649        C650   1.409       .  A
C649        N655   1.349       .  A
C650        C651   1.408       .  A
C650        H661   1.082       .  S
C651        C660   1.385       .  A
C651        C652   1.385       .  A
C652        C653   1.396       .  A
C652        N658   1.337       .  A
C653        C654   1.395   1_565  A
C653        H662   1.083   1_565  S
C654        C657   1.368       .  A
N655        C656   1.358   1_565  A
N655        H665   1.044   1_455  S
C656        C657   1.391       .  A
C657        H663   1.083       .  S
N658        C659   1.352       .  A
N658        H666   1.045       .  S
C659        C660   1.397       .  A
C660        H664   1.082       .  S
C667        C672   1.384       .  A
C667        C668   1.395       .  A
C667        N673   1.336       .  A
C668        C669   1.393       .  A
C668        H679   1.083   1_565  S
C669        C678   1.367   1_565  A
C669        C670   1.383       .  A
C670        C671   1.413       .  A
C670        N676   1.352       .  A
C671        C672   1.413       .  A
C671        H680   1.082       .  S
C672        C675   1.391       .  A
N673        C674   1.352       .  A
N673        H683   1.045       .  S
C674        C675   1.401       .  A
C675        H681   1.082       .  S
N676        C677   1.360   1_565  A
N676        H684   1.044       .  S
C677        C678   1.390       .  A
C678        H682   1.083       .  S
C685        C690   1.388       .  A
C685        C686   1.399       .  A
C685        N691   1.340       .  A
C686        C687   1.397       .  A
C686        H697   1.083       .  S
C687        C696   1.373       .  A
C687        C688   1.387       .  A
C688        C689   1.400       .  A
C688        N694   1.342       .  A
C689        C690   1.400       .  A
C689        H698   1.083       .  S
C690        C693   1.376       .  A
N691        C692   1.352       .  A
N691        H701   1.045       .  S
C692        C693   1.390       .  A
C693        H699   1.083       .  S
N694        C695   1.353       .  A
N694        H702   1.045       .  S
C695        C696   1.390       .  A
C696        H700   1.083       .  S
C703        C708   1.384       .  A
C703        C704   1.409       .  A
C703        N709   1.349       .  A
C704        C705   1.410       .  A
C704        H715   1.082       .  S
C705        C714   1.386       .  A
C705        C706   1.384       .  A
C706        C707   1.399       .  A
C706        N712   1.340       .  A
C707        C708   1.397       .  A
C707        H716   1.083       .  S
C708        C711   1.370       .  A
N709        C710   1.358       .  A
N709        H719   1.045       .  S
C710        C810   1.469   1_554  S
C710        C711   1.392       .  A
C711        H717   1.083       .  S
N712        C713   1.353       .  A
N712        H720   1.045       .  S
C713        C714   1.399       .  A
C714        H718   1.082       .  S
C721        C726   1.385       .  A
C721        C722   1.396       .  A
C721        N727   1.335       .  A
C722        C723   1.394       .  A
C722        H733   1.082       .  S
C723        C732   1.368       .  A
C723        C724   1.384       .  A
C724        C725   1.410       .  A
C724        N730   1.348       .  A
C725        C726   1.409       .  A
C725        H734   1.082       .  S
C726        C729   1.387       .  A
N727        C728   1.351       .  A
N727        H737   1.045       .  S
C728        C729   1.399       .  A
C729        H735   1.082       .  S
N730        C731   1.357       .  A
N730        H738   1.044       .  S
C731        C732   1.390       .  A
C732        H736   1.083       .  S
C739        C744   1.384       .  A
C739        C740   1.407       .  A
C739        N745   1.345       .  A
C740        C741   1.406       .  A
C740        H751   1.082       .  S
C741        C750   1.383       .  A
C741        C742   1.384       .  A
C742        C743   1.400       .  A
C742        N748   1.340       .  A
C743        C744   1.399       .  A
C743        H752   1.082       .  S
C744        C747   1.374       .  A
N745        C746   1.357       .  A
N745        H755   1.045       .  S
C746        C797   1.466   1_554  S
C746        C747   1.393       .  A
C747        H753   1.083       .  S
N748        C749   1.354       .  A
N748        H756   1.045       .  S
C749        C750   1.397       .  A
C750        H754   1.082       .  S
C757        C762   1.385       .  A
C757        C758   1.394       .  A
C757        N763   1.335       .  A
C758        C759   1.393       .  A
C758        H769   1.083       .  S
C759        C768   1.365       .  A
C759        C760   1.385   1_565  A
C760        C761   1.410       .  A
C760        N766   1.349       .  A
C761        C762   1.410   1_545  A
C761        H770   1.082       .  S
C762        C765   1.386       .  A
N763        C764   1.351       .  A
N763        H773   1.045       .  S
C764        C765   1.398       .  A
C765        H771   1.082       .  S
N766        C767   1.358       .  A
N766        H774   1.044       .  S
C767        C768   1.389   1_545  A
C768        H772   1.083       .  S
C775        C780   1.389       .  A
C775        C776   1.396       .  A
C775        N781   1.338       .  A
C776        C777   1.394       .  A
C776        H787   1.083       .  S
C777        C786   1.368       .  A
C777        C778   1.388       .  A
C778        C779   1.400       .  A
C778        N784   1.343       .  A
C779        C780   1.400       .  A
C779        H788   1.083       .  S
C780        C783   1.375       .  A
N781        C782   1.350       .  A
N781        H791   1.045       .  S
C782        C783   1.389       .  A
C783        H789   1.083       .  S
N784        C785   1.352       .  A
N784        H792   1.045       .  S
C785        C786   1.386       .  A
C786        H790   1.083       .  S
In793       O795   2.274       .  S
In793       O796   2.201       .  S
In793       O804   2.233       .  S
In793       O798   2.248       .  S
In793       O800   2.288       .  S
In793       O801   2.246       .  S
In793       O802   2.226       .  S
In793       O805   2.235       .  S
C794        O800   1.262       .  A
C794        O802   1.255       .  A
C794        C900   1.517       .  S
O795        C803   1.267       .  A
O796        C803   1.258       .  A
C797        O804   1.260       .  A
C797        O798   1.262       .  A
C799        O801   1.255       .  A
C799        O805   1.256       .  A
C799       C1574   1.455       .  S
C803       C1556   1.466       .  S
In806       O808   2.218       .  S
In806       O809   2.245       .  S
In806       O817   2.270       .  S
In806       O811   2.209       .  S
In806       O813   2.282       .  S
In806       O814   2.199       .  S
In806       O815   2.215       .  S
In806       O818   2.279       .  S
C807        O813   1.265       .  A
C807        O815   1.256       .  A
C807        C897   1.519       .  S
O808        C816   1.258       .  A
O809        C816   1.258       .  A
C810        O817   1.267       .  A
C810        O811   1.260       .  A
C812        O814   1.256       .  A
C812        O818   1.265       .  A
C812       C1520   1.465       .  S
C816       C1577   1.454       .  S
In819       O821   2.295       .  S
In819       O822   2.208       .  S
In819       O830   2.234       .  S
In819       O824   2.264       .  S
In819       O826   2.308       .  S
In819       O827   2.249       .  S
In819       O828   2.219       .  S
In819       O831   2.237       .  S
C820        O826   1.264       .  A
C820        O828   1.255       .  A
C820        C900   1.523       .  S
O821        C829   1.265       .  A
O822        C829   1.256       .  A
C823        O830   1.260       .  A
C823        O824   1.264       .  A
C823       C1541   1.469       .  S
C825        O827   1.258       .  A
C825        O831   1.257       .  A
C825       C1484   1.458       .  S
C829       C1466   1.472       .  S
In832       O834   2.242       .  S
In832       O835   2.252       .  S
In832       O843   2.241       .  S
In832       O837   2.254       .  S
In832       O839   2.306       .  S
In832       O840   2.211       .  S
In832       O841   2.208       .  S
In832       O844   2.285       .  S
C833        O839   1.263       .  A
C833        O841   1.252       .  A
C833        C899   1.517       .  S
O834        C842   1.255       .  A
O835        C842   1.257       .  A
C836        O843   1.263       .  A
C836        O837   1.265       .  A
C836       C1433   1.473       .  S
C838        O840   1.253       .  A
C838        O844   1.263       .  A
C838       C1451   1.465       .  S
C842       C1487   1.459       .  S
In845       O847   2.235       .  S
In845       O848   2.250       .  S
In845       O856   2.241       .  S
In845       O850   2.275       .  S
In845       O852   2.270       .  S
In845       O853   2.231       .  S
In845       O854   2.273       .  S
In845       O857   2.282       .  S
C846        O852   1.262       .  A
C846        O854   1.255       .  A
C846        C897   1.526       .  S
O847        C855   1.259       .  A
O848        C855   1.261       .  A
C849        O856   1.257       .  A
C849        O850   1.260       .  A
C849       C1505   1.472       .  S
C851        O853   1.258       .  A
C851        O857   1.264       .  A
C851       C1394   1.474       .  S
C855       C1415   1.463       .  S
In858       O860   2.265       .  S
In858       O861   2.230       .  S
In858       O869   2.235       .  S
In858       O863   2.276       .  S
In858       O865   2.263       .  S
In858       O866   2.238       .  S
In858       O867   2.256       .  S
In858       O870   2.239       .  S
C859        O865   1.262       .  A
C859        O867   1.256       .  A
C859        C898   1.522       .  S
O860        C868   1.263       .  A
O861        C868   1.258       .  A
C862        O869   1.256       .  A
C862        O863   1.261       .  A
C862       C1361   1.472       .  S
C864        O866   1.260       .  A
C864        O870   1.259       .  A
C864       C1412   1.461       .  S
C868       C1376   1.468       .  S
In871       O873   2.220       .  S
In871       O874   2.253       .  S
In871       O882   2.226       .  S
In871       O876   2.266       .  S
In871       O878   2.296       .  S
In871       O879   2.191       .  S
In871       O880   2.221       .  S
In871       O883   2.277       .  S
C872        O878   1.265       .  A
C872        O880   1.256       .  A
C872        C899   1.522       .  S
O873        C881   1.258       .  A
O874        C881   1.257       .  A
C875        O882   1.260       .  A
C875        O876   1.266       .  A
C877        O879   1.257       .  A
C877        O883   1.266       .  A
C877       C1325   1.465       .  S
C881       C1340   1.457       .  S
In884       O886   2.297       .  S
In884       O887   2.202       .  S
In884       O895   2.216       .  S
In884       O889   2.275       .  S
In884       O891   2.292       .  S
In884       O892   2.253       .  S
In884       O893   2.223       .  S
In884       O896   2.230       .  S
C885        O891   1.265       .  A
C885        O893   1.256       .  A
C885        C898   1.524       .  S
O886        C894   1.265       .  A
O887        C894   1.256       .  A
C888        O895   1.260       .  A
C888        O889   1.267       .  A
C890        O892   1.258       .  A
C890        O896   1.257       .  A
C890       C1343   1.459       .  S
C894       C1304   1.472       .  S
C897       C1268   1.536       .  S
C897       C1286   1.538       .  S
C898       C1250   1.532       .  S
C898       C1289   1.540       .  S
C899       C1232   1.534       .  S
C899       C1253   1.532       .  S
C900       C1235   1.534       .  S
C900       C1271   1.535       .  S
In901       O903   2.221       .  S
In901       O904   2.252       .  S
In901       O912   2.231       .  S
In901       O906   2.255       .  S
In901       O908   2.299       .  S
In901       O909   2.201       .  S
In901       O910   2.215       .  S
In901       O913   2.285       .  S
C902        O908   1.264       .  A
C902        O910   1.255       .  A
C902       C1008   1.519       .  S
O903        C911   1.254       .  A
O904        C911   1.258       .  A
C905        O912   1.260       .  A
C905        O906   1.265       .  A
C907        O909   1.256       .  A
C907        O913   1.265       .  A
C907       C1307   1.468   1_655  S
C911       C1214   1.453       .  S
In914       O916   2.277       .  S
In914       O917   2.205       .  S
In914       O925   2.240       .  S
In914       O919   2.243       .  S
In914       O921   2.315       .  S
In914       O922   2.242       .  S
In914       O923   2.208       .  S
In914       O926   2.235       .  S
C915        O921   1.262       .  A
C915        O923   1.253       .  A
C915       C1005   1.521       .  S
O916        C924   1.265       .  A
O917        C924   1.255       .  A
C918        O925   1.262       .  A
C918        O919   1.263       .  A
C920        O922   1.256       .  A
C920        O926   1.257       .  A
C920       C1217   1.454       .  S
C924       C1523   1.464       .  S
In927       O929   2.238       .  S
In927       O930   2.255       .  S
In927       O938   2.241       .  S
In927       O932   2.257       .  S
In927       O934   2.302       .  S
In927       O935   2.192   1_655  S
In927       O936   2.219       .  S
In927       O939   2.288       .  S
C928        O934   1.264       .  A
C928        O936   1.255       .  A
C928       C1008   1.521       .  S
O929        C937   1.256       .  A
O930        C937   1.256       .  A
C931        O938   1.260       .  A
C931        O932   1.264       .  A
C931       C1199   1.471       .  S
C933        O935   1.257   1_655  A
C933        O939   1.267       .  A
C933       C1379   1.468   1_655  S
C937       C1160   1.460   1_655  S
In940       O942   2.277       .  S
In940       O943   2.203       .  S
In940       O951   2.214       .  S
In940       O945   2.266       .  S
In940       O947   2.294       .  S
In940       O948   2.237   1_655  S
In940       O949   2.220       .  S
In940       O952   2.233       .  S
C941        O947   1.266       .  A
C941        O949   1.256       .  A
C941       C1007   1.523       .  S
O942        C950   1.265       .  A
O943        C950   1.256       .  A
C944        O951   1.259       .  A
C944        O945   1.267       .  A
C944       C1142   1.468       .  S
C946        O948   1.258   1_655  A
C946        O952   1.260       .  A
C946       C1163   1.456   1_655  S
C950       C1448   1.467   1_655  S
In953       O955   2.267       .  S
In953       O956   2.207       .  S
In953       O964   2.224       .  S
In953       O958   2.256       .  S
In953       O960   2.297       .  S
In953       O961   2.247       .  S
In953       O962   2.210       .  S
In953       O965   2.223       .  S
C954        O960   1.266       .  A
C954        O962   1.257       .  A
C954       C1005   1.521       .  S
O955        C963   1.265       .  A
O956        C963   1.259       .  A
C957        O964   1.259       .  A
C957        O958   1.266       .  A
C957       C1178   1.468       .  S
C959        O961   1.258       .  A
C959        O965   1.258       .  A
C959       C1127   1.455       .  S
C963       C1397   1.467       .  S
In966       O968   2.225       .  S
In966       O969   2.236       .  S
In966       O977   2.211       .  S
In966       O971   2.266       .  S
In966       O973   2.292       .  S
In966       O974   2.202       .  S
In966       O975   2.225       .  S
In966       O978   2.290       .  S
C967        O973   1.266       .  A
C967        O975   1.257       .  A
C967       C1006   1.522       .  S
O968        C976   1.258       .  A
O969        C976   1.257       .  A
C970        O977   1.258       .  A
C970        O971   1.266       .  A
C970       C1109   1.467       .  S
C972        O974   1.257       .  A
C972        O978   1.266       .  A
C972       C1469   1.472       .  S
C976       C1124   1.453       .  S
In979       O981   2.291       .  S
In979       O982   2.218       .  S
In979       O990   2.251       .  S
In979       O984   2.241       .  S
In979       O986   2.324       .  S
In979       O987   2.250       .  S
In979       O988   2.227       .  S
In979       O991   2.237       .  S
C980        O986   1.263       .  A
C980        O988   1.254       .  A
C980       C1007   1.528       .  S
O981        C989   1.263       .  A
O982        C989   1.254       .  A
C983        O990   1.262       .  A
C983        O984   1.262       .  A
C985        O987   1.260       .  A
C985        O991   1.257       .  A
C985       C1088   1.460       .  S
C989       C1322   1.468   1_655  S
In992       O994   2.236       .  S
In992       O995   2.257       .  S
In992      O1003   2.248       .  S
In992       O997   2.240       .  S
In992       O999   2.306       .  S
In992      O1000   2.196       .  S
In992      O1001   2.223       .  S
In992      O1004   2.282       .  S
C993        O999   1.263       .  A
C993       O1001   1.254       .  A
C993       C1006   1.522       .  S
O994       C1002   1.255       .  A
O995       C1002   1.258       .  A
C996       O1003   1.262       .  A
C996        O997   1.263       .  A
C998       O1000   1.255       .  A
C998       O1004   1.264       .  A
C998       C1559   1.464       .  S
C1002      C1091   1.459       .  S
C1005      C1055   1.537       .  S
C1005      C1073   1.541       .  S
C1006      C1034   1.535       .  S
C1006      C1070   1.537       .  S
C1007      C1016   1.539       .  S
C1007      C1037   1.536       .  S
C1008      C1019   1.537       .  S
C1008      C1052   1.533       .  S
C1009      C1014   1.381       .  A
C1009      C1010   1.413       .  A
C1009      N1015   1.352       .  A
C1010      C1011   1.413       .  A
C1010      H1021   1.082       .  S
C1011      C1020   1.389       .  A
C1011      C1012   1.382       .  A
C1012      C1013   1.404       .  A
C1012      N1018   1.343       .  A
C1013      C1014   1.403       .  A
C1013      H1022   1.083       .  S
C1014      C1017   1.377       .  A
N1015      C1016   1.363       .  A
N1015      H1025   1.044       .  S
C1016      C1017   1.404       .  A
C1017      H1023   1.082       .  S
N1018      C1019   1.361       .  A
N1018      H1026   1.044       .  S
C1019      C1020   1.404       .  A
C1020      H1024   1.082       .  S
C1027      C1032   1.382       .  A
C1027      C1028   1.402       .  A
C1027      N1033   1.342       .  A
C1028      C1029   1.401       .  A
C1028      H1039   1.083       .  S
C1029      C1038   1.376       .  A
C1029      C1030   1.381       .  A
C1030      C1031   1.412       .  A
C1030      N1036   1.350       .  A
C1031      C1032   1.412       .  A
C1031      H1040   1.082       .  S
C1032      C1035   1.387       .  A
N1033      C1034   1.360       .  A
N1033      H1043   1.044       .  S
C1034      C1035   1.404       .  A
C1035      H1041   1.082       .  S
N1036      C1037   1.363       .  A
N1036      H1044   1.044       .  S
C1037      C1038   1.402       .  A
C1038      H1042   1.082       .  S
C1045      C1050   1.382       .  A
C1045      C1046   1.404       .  A
C1045      N1051   1.345       .  A
C1046      C1047   1.404       .  A
C1046      H1057   1.083       .  S
C1047      C1056   1.375       .  A
C1047      C1048   1.382       .  A
C1048      C1049   1.408       .  A
C1048      N1054   1.350       .  A
C1049      C1050   1.409       .  A
C1049      H1058   1.082       .  S
C1050      C1053   1.383       .  A
N1051      C1052   1.362       .  A
N1051      H1061   1.044       .  S
C1052      C1053   1.401       .  A
C1053      H1059   1.082       .  S
N1054      C1055   1.360       .  A
N1054      H1062   1.044       .  S
C1055      C1056   1.406       .  A
C1056      H1060   1.082       .  S
C1063      C1068   1.382       .  A
C1063      C1064   1.406       .  A
C1063      N1069   1.348       .  A
C1064      C1065   1.407       .  A
C1064      H1075   1.083       .  S
C1065      C1074   1.377       .  A
C1065      C1066   1.381       .  A
C1066      C1067   1.410       .  A
C1066      N1072   1.352       .  A
C1067      C1068   1.411       .  A
C1067      H1076   1.082       .  S
C1068      C1071   1.383       .  A
N1069      C1070   1.362       .  A
N1069      H1079   1.044       .  S
C1070      C1071   1.403       .  A
C1071      H1077   1.082       .  S
N1072      C1073   1.362       .  A
N1072      H1080   1.044       .  S
C1073      C1074   1.406       .  A
C1074      H1078   1.082       .  S
C1081      C1086   1.386       .  A
C1081      C1082   1.399       .  A
C1081      N1087   1.340       .  A
C1082      C1083   1.399       .  A
C1082      H1093   1.083       .  S
C1083      C1092   1.372       .  A
C1083      C1084   1.388       .  A
C1084      C1085   1.401   1_545  A
C1084      N1090   1.342       .  A
C1085      C1086   1.399   1_565  A
C1085      H1094   1.083       .  S
C1086      C1089   1.376       .  A
N1087      C1088   1.353       .  A
N1087      H1097   1.045       .  S
C1088      C1089   1.391       .  A
C1089      H1095   1.083       .  S
N1090      C1091   1.352       .  A
N1090      H1098   1.045       .  S
C1091      C1092   1.391       .  A
C1092      H1096   1.083       .  S
C1099      C1104   1.384       .  A
C1099      C1100   1.406       .  A
C1099      N1105   1.343       .  A
C1100      C1101   1.404       .  A
C1100      H1111   1.082       .  S
C1101      C1110   1.383       .  A
C1101      C1102   1.384       .  A
C1102      C1103   1.401       .  A
C1102      N1108   1.339       .  A
C1103      C1104   1.399       .  A
C1103      H1112   1.082       .  S
C1104      C1107   1.377       .  A
N1105      C1106   1.356       .  A
N1105      H1115   1.045       .  S
C1106      C1107   1.394       .  A
C1107      H1113   1.083       .  S
N1108      C1109   1.354       .  A
N1108      H1116   1.045       .  S
C1109      C1110   1.397       .  A
C1110      H1114   1.082       .  S
C1117      C1122   1.388       .  A
C1117      C1118   1.401       .  A
C1117      N1123   1.341       .  A
C1118      C1119   1.400       .  A
C1118      H1129   1.083       .  S
C1119      C1128   1.377       .  A
C1119      C1120   1.388       .  A
C1120      C1121   1.397       .  A
C1120      N1126   1.338       .  A
C1121      C1122   1.395       .  A
C1121      H1130   1.083       .  S
C1122      C1125   1.371       .  A
N1123      C1124   1.351       .  A
N1123      H1133   1.045       .  S
C1124      C1125   1.388       .  A
C1125      H1131   1.083       .  S
N1126      C1127   1.351       .  A
N1126      H1134   1.045       .  S
C1127      C1128   1.390       .  A
C1128      H1132   1.083       .  S
C1135      C1140   1.384       .  A
C1135      C1136   1.403       .  A
C1135      N1141   1.340       .  A
C1136      C1137   1.401       .  A
C1136      H1147   1.082   1_655  S
C1137      C1146   1.378       .  A
C1137      C1138   1.384       .  A
C1138      C1139   1.406       .  A
C1138      N1144   1.343       .  A
C1139      C1140   1.404       .  A
C1139      H1148   1.082       .  S
C1140      C1143   1.383       .  A
N1141      C1142   1.355       .  A
N1141      H1151   1.045       .  S
C1142      C1143   1.396       .  A
C1143      H1149   1.082       .  S
N1144      C1145   1.356       .  A
N1144      H1152   1.045       .  S
C1145      C1146   1.394       .  A
C1146      H1150   1.082       .  S
C1153      C1158   1.388       .  A
C1153      C1154   1.398       .  A
C1153      N1159   1.339       .  A
C1154      C1155   1.396       .  A
C1154      H1165   1.083   1_455  S
C1155      C1164   1.373       .  A
C1155      C1156   1.388       .  A
C1156      C1157   1.402       .  A
C1156      N1162   1.342       .  A
C1157      C1158   1.400       .  A
C1157      H1166   1.083       .  S
C1158      C1161   1.378       .  A
N1159      C1160   1.351       .  A
N1159      H1169   1.045   1_455  S
C1160      C1161   1.392       .  A
C1161      H1167   1.083       .  S
N1162      C1163   1.352       .  A
N1162      H1170   1.045       .  S
C1163      C1164   1.388       .  A
C1164      H1168   1.083   1_455  S
C1171      C1176   1.384       .  A
C1171      C1172   1.403       .  A
C1171      N1177   1.342       .  A
C1172      C1173   1.402       .  A
C1172      H1183   1.082       .  S
C1173      C1182   1.377       .  A
C1173      C1174   1.384       .  A
C1174      C1175   1.404       .  A
C1174      N1180   1.343       .  A
C1175      C1176   1.403       .  A
C1175      H1184   1.082       .  S
C1176      C1179   1.380       .  A
N1177      C1178   1.356       .  A
N1177      H1187   1.045       .  S
C1178      C1179   1.394       .  A
C1179      H1185   1.082       .  S
N1180      C1181   1.355       .  A
N1180      H1188   1.045       .  S
C1181      C1182   1.395       .  A
C1182      H1186   1.083       .  S
C1189      C1194   1.384       .  A
C1189      C1190   1.402       .  A
C1189      N1195   1.341       .  A
C1190      C1191   1.401       .  A
C1190      H1201   1.082       .  S
C1191      C1200   1.377       .  A
C1191      C1192   1.384       .  A
C1192      C1193   1.406       .  A
C1192      N1198   1.345       .  A
C1193      C1194   1.404       .  A
C1193      H1202   1.082       .  S
C1194      C1197   1.381       .  A
N1195      C1196   1.354       .  A
N1195      H1205   1.045       .  S
C1196      C1197   1.396       .  A
C1197      H1203   1.082       .  S
N1198      C1199   1.356       .  A
N1198      H1206   1.045       .  S
C1199      C1200   1.395       .  A
C1200      H1204   1.083       .  S
C1207      C1212   1.388       .  A
C1207      C1208   1.396       .  A
C1207      N1213   1.336       .  A
C1208      C1209   1.394       .  A
C1208      H1219   1.083       .  S
C1209      C1218   1.370       .  A
C1209      C1210   1.387       .  A
C1210      C1211   1.401       .  A
C1210      N1216   1.341       .  A
C1211      C1212   1.399       .  A
C1211      H1220   1.083       .  S
C1212      C1215   1.376       .  A
N1213      C1214   1.350       .  A
N1213      H1223   1.045       .  S
C1214      C1215   1.391       .  A
C1215      H1221   1.083       .  S
N1216      C1217   1.352       .  A
N1216      H1224   1.045       .  S
C1217      C1218   1.388       .  A
C1218      H1222   1.083       .  S
C1225      C1230   1.382       .  A
C1225      C1226   1.402       .  A
C1225      N1231   1.341       .  A
C1226      C1227   1.401       .  A
C1226      H1237   1.083       .  S
C1227      C1236   1.376       .  A
C1227      C1228   1.382       .  A
C1228      C1229   1.411       .  A
C1228      N1234   1.348       .  A
C1229      C1230   1.409       .  A
C1229      H1238   1.082       .  S
C1230      C1233   1.386       .  A
N1231      C1232   1.361       .  A
N1231      H1241   1.044       .  S
C1232      C1233   1.402       .  A
C1233      H1239   1.082       .  S
N1234      C1235   1.361       .  A
N1234      H1242   1.045       .  S
C1235      C1236   1.402       .  A
C1236      H1240   1.082       .  S
C1243      C1248   1.382       .  A
C1243      C1244   1.410       .  A
C1243      N1249   1.347       .  A
C1244      C1245   1.408       .  A
C1244      H1255   1.082       .  S
C1245      C1254   1.384       .  A
C1245      C1246   1.382       .  A
C1246      C1247   1.402       .  A
C1246      N1252   1.342       .  A
C1247      C1248   1.401       .  A
C1247      H1256   1.083       .  S
C1248      C1251   1.376       .  A
N1249      C1250   1.362       .  A
N1249      H1259   1.045       .  S
C1250      C1251   1.401       .  A
C1251      H1257   1.082       .  S
N1252      C1253   1.360       .  A
N1252      H1260   1.044       .  S
C1253      C1254   1.403       .  A
C1254      H1258   1.082       .  S
C1261      C1266   1.382       .  A
C1261      C1262   1.410       .  A
C1261      N1267   1.348       .  A
C1262      C1263   1.409       .  A
C1262      H1273   1.082       .  S
C1263      C1272   1.387       .  A
C1263      C1264   1.382       .  A
C1264      C1265   1.405       .  A
C1264      N1270   1.343       .  A
C1265      C1266   1.404       .  A
C1265      H1274   1.083       .  S
C1266      C1269   1.379       .  A
N1267      C1268   1.361       .  A
N1267      H1277   1.045       .  S
C1268      C1269   1.404       .  A
C1269      H1275   1.082       .  S
N1270      C1271   1.362       .  A
N1270      H1278   1.044       .  S
C1271      C1272   1.403       .  A
C1272      H1276   1.082       .  S
C1279      C1284   1.381       .  A
C1279      C1280   1.409       .  A
C1279      N1285   1.349       .  A
C1280      C1281   1.409       .  A
C1280      H1291   1.082       .  S
C1281      C1290   1.384       .  A
C1281      C1282   1.382       .  A
C1282      C1283   1.401       .  A
C1282      N1288   1.340       .  A
C1283      C1284   1.400       .  A
C1283      H1292   1.083       .  S
C1284      C1287   1.372       .  A
N1285      C1286   1.362       .  A
N1285      H1295   1.045       .  S
C1286      C1287   1.403       .  A
C1287      H1293   1.082       .  S
N1288      C1289   1.361       .  A
N1288      H1296   1.044       .  S
C1289      C1290   1.404       .  A
C1290      H1294   1.082       .  S
C1297      C1302   1.384       .  A
C1297      C1298   1.394       .  A
C1297      N1303   1.335       .  A
C1298      C1299   1.392       .  A
C1298      H1309   1.083       .  S
C1299      C1308   1.366       .  A
C1299      C1300   1.383       .  A
C1300      C1301   1.413       .  A
C1300      N1306   1.351       .  A
C1301      C1302   1.413       .  A
C1301      H1310   1.082       .  S
C1302      C1305   1.391       .  A
N1303      C1304   1.351       .  A
N1303      H1313   1.045       .  S
C1304      C1305   1.402       .  A
C1305      H1311   1.082       .  S
N1306      C1307   1.360       .  A
N1306      H1314   1.044       .  S
C1307      C1308   1.389       .  A
C1308      H1312   1.083   1_455  S
C1315      C1320   1.385   1_565  A
C1315      C1316   1.394       .  A
C1315      N1321   1.336       .  A
C1316      C1317   1.393       .  A
C1316      H1327   1.083       .  S
C1317      C1326   1.365       .  A
C1317      C1318   1.384       .  A
C1318      C1319   1.410       .  A
C1318      N1324   1.349       .  A
C1319      C1320   1.410   1_565  A
C1319      H1328   1.082   1_565  S
C1320      C1323   1.388       .  A
N1321      C1322   1.351   1_565  A
N1321      H1331   1.045   1_455  S
C1322      C1323   1.399       .  A
C1323      H1329   1.082       .  S
N1324      C1325   1.358       .  A
N1324      H1332   1.044       .  S
C1325      C1326   1.390       .  A
C1326      H1330   1.083       .  S
C1333      C1338   1.388       .  A
C1333      C1334   1.403       .  A
C1333      N1339   1.344       .  A
C1334      C1335   1.402       .  A
C1334      H1345   1.083       .  S
C1335      C1344   1.379       .  A
C1335      C1336   1.387       .  A
C1336      C1337   1.396       .  A
C1336      N1342   1.338       .  A
C1337      C1338   1.395       .  A
C1337      H1346   1.083   1_556  S
C1338      C1341   1.369       .  A
N1339      C1340   1.353       .  A
N1339      H1349   1.045       .  S
C1340      C1341   1.388       .  A
C1341      H1347   1.083   1_556  S
N1342      C1343   1.350       .  A
N1342      H1350   1.045   1_556  S
C1343      C1344   1.392       .  A
C1344      H1348   1.083       .  S
C1351      C1356   1.384       .  A
C1351      C1352   1.400       .  A
C1351      N1357   1.339       .  A
C1352      C1353   1.398       .  A
C1352      H1363   1.083       .  S
C1353      C1362   1.374       .  A
C1353      C1354   1.384       .  A
C1354      C1355   1.410       .  A
C1354      N1360   1.348       .  A
C1355      C1356   1.409       .  A
C1355      H1364   1.082       .  S
C1356      C1359   1.387       .  A
N1357      C1358   1.354       .  A
N1357      H1367   1.045       .  S
C1358      C1359   1.399       .  A
C1359      H1365   1.082       .  S
N1360      C1361   1.358       .  A
N1360      H1368   1.045       .  S
C1361      C1362   1.393       .  A
C1362      H1366   1.083       .  S
C1369      C1374   1.385       .  A
C1369      C1370   1.396       .  A
C1369      N1375   1.339       .  A
C1370      C1371   1.396       .  A
C1370      H1381   1.082       .  S
C1371      C1380   1.366       .  A
C1371      C1372   1.384       .  A
C1372      C1373   1.409       .  A
C1372      N1378   1.350       .  A
C1373      C1374   1.410       .  A
C1373      H1382   1.082       .  S
C1374      C1377   1.384       .  A
N1375      C1376   1.352       .  A
N1375      H1385   1.045       .  S
C1376      C1377   1.398       .  A
C1377      H1383   1.082       .  S
N1378      C1379   1.358       .  A
N1378      H1386   1.044   1_455  S
C1379      C1380   1.391       .  A
C1380      H1384   1.083       .  S
C1387      C1392   1.384       .  A
C1387      C1388   1.397       .  A
C1387      N1393   1.338       .  A
C1388      C1389   1.395       .  A
C1388      H1399   1.082       .  S
C1389      C1398   1.370       .  A
C1389      C1390   1.383       .  A
C1390      C1391   1.411       .  A
C1390      N1396   1.349       .  A
C1391      C1392   1.411       .  A
C1391      H1400   1.082       .  S
C1392      C1395   1.388       .  A
N1393      C1394   1.352       .  A
N1393      H1403   1.045       .  S
C1394      C1395   1.401       .  A
C1395      H1401   1.082       .  S
N1396      C1397   1.358       .  A
N1396      H1404   1.044       .  S
C1397      C1398   1.390       .  A
C1398      H1402   1.083       .  S
C1405      C1410   1.387       .  A
C1405      C1406   1.400       .  A
C1405      N1411   1.342       .  A
C1406      C1407   1.399       .  A
C1406      H1417   1.083       .  S
C1407      C1416   1.374       .  A
C1407      C1408   1.387       .  A
C1408      C1409   1.401       .  A
C1408      N1414   1.343       .  A
C1409      C1410   1.400       .  A
C1409      H1418   1.083       .  S
C1410      C1413   1.375       .  A
N1411      C1412   1.353       .  A
N1411      H1421   1.045       .  S
C1412      C1413   1.391       .  A
C1413      H1419   1.083       .  S
N1414      C1415   1.353       .  A
N1414      H1422   1.045       .  S
C1415      C1416   1.391       .  A
C1416      H1420   1.083       .  S
C1423      C1428   1.383       .  A
C1423      C1424   1.408       .  A
C1423      N1429   1.348       .  A
C1424      C1425   1.408       .  A
C1424      H1435   1.082       .  S
C1425      C1434   1.383       .  A
C1425      C1426   1.384       .  A
C1426      C1427   1.401       .  A
C1426      N1432   1.342       .  A
C1427      C1428   1.401       .  A
C1427      H1436   1.082       .  S
C1428      C1431   1.374       .  A
N1429      C1430   1.358       .  A
N1429      H1439   1.045       .  S
C1430      C1431   1.395       .  A
C1431      H1437   1.083       .  S
N1432      C1433   1.355       .  A
N1432      H1440   1.045       .  S
C1433      C1434   1.398       .  A
C1434      H1438   1.082       .  S
C1441      C1446   1.384   1_565  A
C1441      C1442   1.409       .  A
C1441      N1447   1.349       .  A
C1442      C1443   1.408       .  A
C1442      H1453   1.082       .  S
C1443      C1452   1.385       .  A
C1443      C1444   1.385       .  A
C1444      C1445   1.396       .  A
C1444      N1450   1.337       .  A
C1445      C1446   1.395   1_565  A
C1445      H1454   1.083   1_565  S
C1446      C1449   1.368       .  A
N1447      C1448   1.358   1_565  A
N1447      H1457   1.044   1_455  S
C1448      C1449   1.391       .  A
C1449      H1455   1.083       .  S
N1450      C1451   1.352       .  A
N1450      H1458   1.045       .  S
C1451      C1452   1.397       .  A
C1452      H1456   1.082       .  S
C1459      C1464   1.384       .  A
C1459      C1460   1.395       .  A
C1459      N1465   1.336       .  A
C1460      C1461   1.393       .  A
C1460      H1471   1.083   1_565  S
C1461      C1470   1.367   1_565  A
C1461      C1462   1.383       .  A
C1462      C1463   1.413       .  A
C1462      N1468   1.352       .  A
C1463      C1464   1.413       .  A
C1463      H1472   1.082       .  S
C1464      C1467   1.391       .  A
N1465      C1466   1.352       .  A
N1465      H1475   1.045       .  S
C1466      C1467   1.401       .  A
C1467      H1473   1.082       .  S
N1468      C1469   1.360   1_565  A
N1468      H1476   1.044       .  S
C1469      C1470   1.390       .  A
C1470      H1474   1.083       .  S
C1477      C1482   1.388       .  A
C1477      C1478   1.399       .  A
C1477      N1483   1.340       .  A
C1478      C1479   1.397       .  A
C1478      H1489   1.083       .  S
C1479      C1488   1.373       .  A
C1479      C1480   1.387       .  A
C1480      C1481   1.400       .  A
C1480      N1486   1.342       .  A
C1481      C1482   1.400       .  A
C1481      H1490   1.083       .  S
C1482      C1485   1.376       .  A
N1483      C1484   1.352       .  A
N1483      H1493   1.045       .  S
C1484      C1485   1.390       .  A
C1485      H1491   1.083       .  S
N1486      C1487   1.353       .  A
N1486      H1494   1.045       .  S
C1487      C1488   1.390       .  A
C1488      H1492   1.083       .  S
C1495      C1500   1.384       .  A
C1495      C1496   1.409       .  A
C1495      N1501   1.349       .  A
C1496      C1497   1.410       .  A
C1496      H1507   1.082       .  S
C1497      C1506   1.386       .  A
C1497      C1498   1.384       .  A
C1498      C1499   1.399       .  A
C1498      N1504   1.340       .  A
C1499      C1500   1.397       .  A
C1499      H1508   1.083       .  S
C1500      C1503   1.370       .  A
N1501      C1502   1.358       .  A
N1501      H1511   1.045       .  S
C1502      C1503   1.392       .  A
C1503      H1509   1.083       .  S
N1504      C1505   1.353       .  A
N1504      H1512   1.045       .  S
C1505      C1506   1.399       .  A
C1506      H1510   1.082       .  S
C1513      C1518   1.385       .  A
C1513      C1514   1.396       .  A
C1513      N1519   1.335       .  A
C1514      C1515   1.394       .  A
C1514      H1525   1.082       .  S
C1515      C1524   1.368       .  A
C1515      C1516   1.384       .  A
C1516      C1517   1.410       .  A
C1516      N1522   1.348       .  A
C1517      C1518   1.409       .  A
C1517      H1526   1.082       .  S
C1518      C1521   1.387       .  A
N1519      C1520   1.351       .  A
N1519      H1529   1.045       .  S
C1520      C1521   1.399       .  A
C1521      H1527   1.082       .  S
N1522      C1523   1.357       .  A
N1522      H1530   1.044       .  S
C1523      C1524   1.390       .  A
C1524      H1528   1.083       .  S
C1531      C1536   1.384       .  A
C1531      C1532   1.407       .  A
C1531      N1537   1.345       .  A
C1532      C1533   1.406       .  A
C1532      H1543   1.082       .  S
C1533      C1542   1.383       .  A
C1533      C1534   1.384       .  A
C1534      C1535   1.400       .  A
C1534      N1540   1.340       .  A
C1535      C1536   1.399       .  A
C1535      H1544   1.082       .  S
C1536      C1539   1.374       .  A
N1537      C1538   1.357       .  A
N1537      H1547   1.045       .  S
C1538      C1539   1.393       .  A
C1539      H1545   1.083       .  S
N1540      C1541   1.354       .  A
N1540      H1548   1.045       .  S
C1541      C1542   1.397       .  A
C1542      H1546   1.082       .  S
C1549      C1554   1.385       .  A
C1549      C1550   1.394       .  A
C1549      N1555   1.335       .  A
C1550      C1551   1.393       .  A
C1550      H1561   1.083       .  S
C1551      C1560   1.365       .  A
C1551      C1552   1.385   1_565  A
C1552      C1553   1.410       .  A
C1552      N1558   1.349       .  A
C1553      C1554   1.410   1_545  A
C1553      H1562   1.082       .  S
C1554      C1557   1.386       .  A
N1555      C1556   1.351       .  A
N1555      H1565   1.045       .  S
C1556      C1557   1.398       .  A
C1557      H1563   1.082       .  S
N1558      C1559   1.358       .  A
N1558      H1566   1.044       .  S
C1559      C1560   1.389   1_545  A
C1560      H1564   1.083       .  S
C1567      C1572   1.389       .  A
C1567      C1568   1.396       .  A
C1567      N1573   1.338       .  A
C1568      C1569   1.394       .  A
C1568      H1579   1.083   1_556  S
C1569      C1578   1.368       .  A
C1569      C1570   1.388       .  A
C1570      C1571   1.400       .  A
C1570      N1576   1.343       .  A
C1571      C1572   1.400       .  A
C1571      H1580   1.083       .  S
C1572      C1575   1.375       .  A
N1573      C1574   1.350       .  A
N1573      H1583   1.045       .  S
C1574      C1575   1.389       .  A
C1575      H1581   1.083       .  S
N1576      C1577   1.352       .  A
N1576      H1584   1.045       .  S
C1577      C1578   1.386       .  A
C1578      H1582   1.083       .  S
