geometry optimzed in LAMMPS
_audit_creation_date              2020-11-30 
_audit_creation_method            'lammps2cif' 
_symmetry_space_group_name_H-M    'P1' 
_symmetry_Int_Tables_number       1 
_symmetry_cell_setting            triclinic 
loop_ 
_symmetry_equiv_pos_as_xyz 
  x,y,z 
_cell_length_a                    31.20192906 
_cell_length_b                    30.697184000899338 
_cell_length_c                    28.859251477070828 
_cell_angle_alpha                 87.96523284895518 
_cell_angle_beta                  89.99801149105133 
_cell_angle_gamma                 117.64269550227719 
loop_ 
_atom_site_label 
_atom_site_type_symbol 
_atom_site_fract_x 
_atom_site_fract_y 
_atom_site_fract_z 
_atom_site_charge 
C1          C  0.32499409  0.20643531  0.98806520     0.06100
C2          C  0.28132534  0.16501077  0.97906273    -0.10000
C3          C  0.29199638  0.12243319  0.30921523     0.03600
C4          C  0.33913172  0.12780063  0.30514071    -0.08500
C5          C  0.37959032  0.17470062  0.30703779     0.06100
C6          C  0.36502713  0.20057343  0.00226870    -0.08000
H7          H  0.25073931  0.16956992  0.96677978     0.11700
H8          H  0.34432099  0.09571044  0.30020082     0.09200
H9          H  0.39856523  0.23337094  0.00732899     0.09100
C10         C  0.22147918  0.32029854  0.98335544     0.06100
C11         C  0.17725516  0.27742908  0.98323534    -0.10000
C12         C  0.12621458  0.29033728  0.33004030     0.03600
C13         C  0.11806663  0.33171806  0.32331129    -0.08500
C14         C  0.15626385  0.37982283  0.32658357     0.06100
C15         C  0.22227021  0.36597969  0.98629680    -0.08000
H16         H  0.17722484  0.24231511  0.98004572     0.11700
H17         H  0.08237104  0.32714011  0.31550718     0.09200
H18         H  0.25652970  0.39940641  0.98486964     0.09100
C19         C  0.35405680  0.34336914  0.00056643     0.00500
C20         C  0.49511164  0.15944957  0.33080860     0.00500
C21         C  0.16658798  0.51213648  0.32578446     0.00500
Fe22       Fe  0.42545510  0.48976423  0.18528130     1.65800
Fe23       Fe  0.99066950  0.43172389  0.17541587     1.73200
Fe24       Fe  0.04816062  0.06592811  0.16538025     1.54400
O25         O  0.02313537  0.09703985  0.11345686    -0.78700
O26         O  0.02463645  0.45249458  0.23692106    -0.77000
O27         O  0.44371615  0.03080744  0.10929897    -0.81200
O28         O  0.44220216  0.03770827  0.21186064    -0.76000
O29         O  0.08441287  0.04966227  0.11408162    -0.77800
O30         O  0.44242925  0.39318683  0.21789859    -0.80600
C31         C  0.98091098  0.07421703  0.24016092     1.00200
C32         C  0.47980368  0.07172341  0.09811339     1.07600
O33         O  0.49082289  0.49554856  0.17949824    -1.09500
O34         O  0.45214925  0.41339531  0.11684094    -0.72000
O35         O  0.39577398  0.43465443  0.13766717    -0.75500
O36         O  0.02053372  0.09168330  0.21721260    -0.76100
C37         C  0.41045431  0.41045224  0.11323623     0.99100
O38         O  0.40639129  0.43772894  0.23810437    -0.74100
O39         O  0.05667374  0.46514919  0.13757550    -0.79300
C40         C  0.06019224  0.49348623  0.24541473     1.01700
C41         C  0.07751892  0.01265087  0.09089407     1.07700
O42         O  0.07743592  0.03943071  0.21793377    -0.74900
C43         C  0.41327795  0.40029667  0.24314724     1.06000
C44         C  0.13076880  0.47915502  0.06932931    -0.13400
C45         C  0.10906479  0.50796043  0.07226046    -0.28600
H46         H  0.12483877  0.45270429  0.09782153     0.15600
H47         H  0.13357195  0.05773629  0.03897163     0.15500
C48         C  0.13554961  0.51162301  0.28474857    -0.13400
C49         C  0.08754280  0.49493444  0.28701832    -0.28600
H50         H  0.15654918  0.05823345  0.26975236     0.15600
H51         H  0.06711172  0.47729636  0.31864080     0.16200
C52         C  0.50227646  0.13906068  0.28547414    -0.13400
C53         C  0.46962531  0.09447596  0.27122862    -0.28600
H54         H  0.03416547  0.16728574  0.26442114     0.15600
H55         H  0.43512263  0.07465870  0.28962996     0.16200
C56         C  0.47417231  0.09854190  0.05720616    -0.13400
C57         C  0.50228474  0.14683861  0.04735977    -0.28600
H58         H  0.44593843  0.07668834  0.03363035     0.15600
H59         H  0.03398634  0.13580221  0.03068483     0.16200
C60         C  0.38720007  0.36340796  0.28017404    -0.13400
C61         C  0.35514850  0.36767519  0.30833375    -0.28600
H62         H  0.39655185  0.33370794  0.28528897     0.15600
H63         H  0.34919696  0.39966166  0.30309468     0.16200
C64         C  0.37671324  0.37589888  0.08077335    -0.13400
C65         C  0.38857162  0.37791251  0.03581837    -0.28600
H66         H  0.34092365  0.34965837  0.09372137     0.15600
H67         H  0.42384708  0.40680828  0.02409946     0.16200
C68         C  0.04004258  0.22425655  0.33167654    -0.13400
C69         C  0.08763482  0.23837106  0.32842448    -0.28600
H70         H  0.03752528  0.25767621  0.99704892     0.15600
H71         H  0.09888558  0.20980430  0.32686532     0.16200
C72         C  0.14557191  0.42246062  0.32327440    -0.13400
C73         C  0.17956610  0.47035962  0.32045095    -0.28600
H74         H  0.10778860  0.41421397  0.32591017     0.15600
H75         H  0.13561169  0.40039632  0.04981531     0.16200
C76         C  0.26681698  0.31705957  0.97864712    -0.13400
C77         C  0.30487254  0.34252058  0.00563806    -0.28600
H78         H  0.28908402  0.39318154  0.35295636     0.15600
H79         H  0.30056030  0.36524078  0.03142542     0.16200
C80         C  0.21186330  0.05604607  0.33493360    -0.13400
C81         C  0.24925411  0.07405178  0.30408499    -0.28600
H82         H  0.21560233  0.07627763  0.36614077     0.15600
H83         H  0.21646609  0.07476212  0.94192968     0.16200
C84         C  0.34999719  0.29221569  0.00882851    -0.13400
C85         C  0.32940276  0.25589355  0.97876783    -0.28600
H86         H  0.36486366  0.28483070  0.04047067     0.15600
H87         H  0.29417380  0.25854382  0.29231473     0.16200
C88         C  0.42954170  0.18097919  0.30324265    -0.13400
C89         C  0.44461264  0.15611022  0.33250082    -0.28600
H90         H  0.45475262  0.20802804  0.27825475     0.15600
H91         H  0.45837330  0.21931276  0.00972019     0.16200
C92         C  0.32535399  0.21076539  0.31624525     0.06100
C93         C  0.28547284  0.16415070  0.31445886    -0.10000
C94         C  0.29870955  0.13652483  0.68302414     0.03600
C95         C  0.33793549  0.12882921  0.66886176    -0.08500
C96         C  0.38491194  0.16867037  0.66462667     0.06100
C97         C  0.37239668  0.21607080  0.31235061    -0.08000
H98         H  0.24920889  0.16047141  0.31616717     0.11700
H99         H  0.33231040  0.09185325  0.66320886     0.09200
H100        H  0.40329774  0.25234449  0.31304392     0.09100
C101        C  0.21164573  0.34533870  0.34211132     0.06100
C102        C  0.17305187  0.29775738  0.33913336    -0.10000
C103        C  0.12199222  0.27891336  0.65298294     0.03600
C104        C  0.11808644  0.32219280  0.65975990    -0.08500
C105        C  0.15953706  0.36791990  0.66332853     0.06100
C106        C  0.20280404  0.38592734  0.33632136    -0.08000
H107        H  0.17848598  0.26571865  0.34447442     0.11700
H108        H  0.08306590  0.32106322  0.66230401     0.09200
H109        H  0.23264938  0.42217557  0.34029278     0.09100
C110        C  0.33075389  0.33405830  0.35081123     0.00500
C111        C  0.51649767  0.18124214  0.66990135     0.00500
C112        C  0.17819133  0.50378632  0.66126946     0.00500
Fe113      Fe  0.42737585  0.48839066  0.50922494     1.65800
Fe114      Fe  0.02194151  0.45355643  0.50165312     1.73200
Fe115      Fe  0.04718904  0.06005140  0.50405697     1.54400
O116        O  0.01806169  0.09051597  0.45608470    -0.78700
O117        O  0.07545094  0.48329272  0.55064652    -0.77000
O118        O  0.47591185  0.06202432  0.44980753    -0.81200
O119        O  0.46123960  0.05577634  0.55267801    -0.76000
O120        O  0.08372157  0.05206522  0.44861358    -0.77800
O121        O  0.44756622  0.39576460  0.54750930    -0.80600
C122        C  0.97342718  0.06585530  0.57106858     1.00200
C123        C  0.51677848  0.10057828  0.44490161     1.07600
O124        O  0.49437278  0.49885819  0.50935919    -1.09500
O125        O  0.46811523  0.41937047  0.44693303    -0.72000
O126        O  0.40514524  0.43272126  0.46161376    -0.75500
O127        O  0.01661935  0.07779636  0.55883596    -0.76100
C128        C  0.42608182  0.41326572  0.43841488     0.99100
O129        O  0.40847087  0.43853664  0.56360144    -0.74100
O130        O  0.07195399  0.48526899  0.44707431    -0.79300
C131        C  0.10193760  0.52632884  0.56458201     1.01700
C132        C  0.08658391  0.01654460  0.43067633     1.07700
O133        O  0.08294443  0.03670984  0.55265195    -0.74900
C134        C  0.41620607  0.40186462  0.57061714     1.06000
C135        C  0.14074175  0.50530719  0.37267953    -0.13400
C136        C  0.12580669  0.53731262  0.38691493    -0.28600
H137        H  0.13276594  0.47280304  0.39460117     0.15600
H138        H  0.13104643  0.06480120  0.37225970     0.15500
C139        C  0.14635182  0.49785838  0.61910046    -0.13400
C140        C  0.13562218  0.53341752  0.60316363    -0.28600
H141        H  0.16386781  0.05902787  0.59894725     0.15600
H142        H  0.15158174  0.56874706  0.61946816     0.16200
C143        C  0.51877892  0.15483005  0.62615439    -0.13400
C144        C  0.48827991  0.10733730  0.61722406    -0.28600
H145        H  0.02260373  0.15881013  0.59100473     0.15600
H146        H  0.45654293  0.08600290  0.63893947     0.16200
C147        C  0.52299784  0.13763532  0.40794828    -0.13400
C148        C  0.49526956  0.12491346  0.37018350    -0.28600
H149        H  0.55087788  0.17509552  0.41202022     0.15600
H150        H  0.04431838  0.15896940  0.39237524     0.16200
C151        C  0.38784258  0.36523024  0.60753680    -0.13400
C152        C  0.36596049  0.37750874  0.64114390    -0.28600
H153        H  0.38693227  0.32953439  0.60784182     0.15600
H154        H  0.36990515  0.41468307  0.64007705     0.16200
C155        C  0.40158019  0.38219307  0.39968787    -0.13400
C156        C  0.35379018  0.36300648  0.39335823    -0.28600
H157        H  0.42358355  0.37428538  0.37554866     0.15600
H158        H  0.33163519  0.36975778  0.41832351     0.16200
C159        C  0.03284745  0.21948570  0.65402809    -0.13400
C160        C  0.07963768  0.22915300  0.65171965    -0.28600
H161        H  0.02819238  0.25221569  0.33422849     0.15600
H162        H  0.08728767  0.19803429  0.65097622     0.16200
C163        C  0.15241215  0.41251715  0.66713530    -0.13400
C164        C  0.18817346  0.45940479  0.66523213    -0.28600
H165        H  0.11533308  0.40679450  0.66879586     0.15600
H166        H  0.21737982  0.47998226  0.31559564     0.16200
C167        C  0.26215043  0.35496552  0.35010922    -0.13400
C168        C  0.27731248  0.32037596  0.35070389    -0.28600
H169        H  0.26376288  0.30832430  0.62378703     0.15600
H170        H  0.25156015  0.28184154  0.34912474     0.16200
C171        C  0.22673631  0.06271995  0.65761224    -0.13400
C172        C  0.24920746  0.09487957  0.69088356    -0.28600
H173        H  0.24666747  0.06831156  0.62509613     0.15600
H174        H  0.24785779  0.05373772  0.27358352     0.16200
C175        C  0.33645528  0.28721529  0.35137310    -0.13400
C176        C  0.31709082  0.25402927  0.31837640    -0.28600
H177        H  0.35743279  0.28085069  0.37841342     0.15600
H178        H  0.40017143  0.30452420  0.68748934     0.16200
C179        C  0.42741775  0.16124976  0.65284462    -0.13400
C180        C  0.46813218  0.18212486  0.67806311    -0.28600
H181        H  0.42457972  0.13920440  0.62349523     0.15600
H182        H  0.41874075  0.13164055  0.35876676     0.16200
C183        C  0.35282048  0.22505957  0.68318739     0.06100
C184        C  0.30664397  0.18455332  0.69080966    -0.10000
C185        C  0.27650636  0.11771982  0.98692781     0.03600
C186        C  0.31675377  0.11196612  0.00079755    -0.08500
C187        C  0.36195066  0.15329685  0.00674871     0.06100
C188        C  0.39168444  0.21642104  0.67137701    -0.08000
H189        H  0.27642066  0.18977762  0.70230486     0.11700
H190        H  0.31345288  0.07524168  0.00421694     0.09200
H191        H  0.42751354  0.24729431  0.66629479     0.09100
C192        C  0.20962620  0.32674846  0.65436317     0.06100
C193        C  0.16809308  0.28205557  0.64937652    -0.10000
C194        C  0.13332686  0.27924675  0.98796861     0.03600
C195        C  0.13459234  0.32562878  0.99219393    -0.08500
C196        C  0.17924987  0.36899369  0.99084632     0.06100
C197        C  0.20548167  0.36962205  0.66160135    -0.08000
H198        H  0.17180844  0.24915010  0.64407737     0.11700
H199        H  0.10168175  0.32883580  0.99527452     0.09200
H200        H  0.23827862  0.40371493  0.66496917     0.09100
C201        C  0.33847613  0.34589998  0.68353084     0.00500
C202        C  0.49563697  0.17257821  0.00344161     0.00500
C203        C  0.16259760  0.48077990  0.02795404     0.00500
Fe204      Fe  0.44256954  0.49275885  0.83915250     1.65800
Fe205      Fe  0.01759104  0.42022758  0.84108642     1.73200
Fe206      Fe  0.05379101  0.07584979  0.82993758     1.54400
O207        O  0.01949547  0.09504115  0.77820531    -0.78700
O208        O  0.05104590  0.43283710  0.90283641    -0.77000
O209        O  0.45683412  0.05774013  0.79229284    -0.81200
O210        O  0.46927196  0.06976897  0.89375437    -0.76000
O211        O  0.09492044  0.06770424  0.77780264    -0.77800
O212        O  0.47881804  0.40931960  0.87860437    -0.80600
C213        C  0.97874604  0.07760341  0.89956158     1.00200
C214        C  0.49700471  0.08701404  0.77334726     1.07600
O215        O  0.51158667  0.50934034  0.83488344    -1.09500
O216        O  0.48380207  0.42470000  0.77584587    -0.72000
O217        O  0.42248541  0.44100100  0.78951939    -0.75500
O218        O  0.02056223  0.09588428  0.88091209    -0.76100
C219        C  0.44193976  0.41967899  0.76733506     0.99100
O220        O  0.42804733  0.44034918  0.89022713    -0.74100
O221        O  0.08258430  0.44440406  0.80476325    -0.79300
C222        C  0.08643956  0.47075013  0.91763448     1.01700
C223        C  0.09954210  0.03241120  0.76125328     1.07700
O224        O  0.09210533  0.06256192  0.88239884    -0.74900
C225        C  0.44312069  0.40931374  0.89959945     1.06000
C226        C  0.15171408  0.50893527  0.70435397    -0.13400
C227        C  0.13968089  0.47991934  0.74348883    -0.28600
H228        H  0.14059754  0.53767081  0.70217184     0.15600
H229        H  0.14264564  0.07726318  0.70023263     0.15500
C230        C  0.14595623  0.49377072  0.98166167    -0.13400
C231        C  0.10329340  0.46355400  0.96373491    -0.28600
H232        H  0.12772747  0.96388303  0.92961917     0.15600
H233        H  0.07984565  0.42982967  0.98335030     0.16200
C234        C  0.48839806  0.14154740  0.96105665    -0.13400
C235        C  0.52114161  0.12764420  0.94690638    -0.28600
H236        H  0.02616059  0.17205106  0.92107400     0.15600
H237        H  0.55530812  0.14050682  0.96464813     0.16200
C238        C  0.49303601  0.11313348  0.73081184    -0.13400
C239        C  0.52682079  0.15663296  0.71287177    -0.28600
H240        H  0.45766653  0.09651297  0.71513700     0.15600
H241        H  0.03459826  0.16162002  0.71995978     0.16200
C242        C  0.41882883  0.37320341  0.93795985    -0.13400
C243        C  0.37470030  0.36492383  0.95275180    -0.28600
H244        H  0.43893638  0.35792356  0.95731926     0.15600
H245        H  0.35479901  0.37910980  0.93143790     0.16200
C246        C  0.41501415  0.38866009  0.72926130    -0.13400
C247        C  0.36664655  0.37075462  0.72625270    -0.28600
H248        H  0.43575645  0.38319511  0.70201048     0.15600
H249        H  0.34760544  0.37772419  0.75427322     0.16200
C250        C  0.04259045  0.22548048  0.99265315    -0.13400
C251        C  0.08803533  0.23144063  0.98779514    -0.28600
H252        H  0.02370962  0.24950913  0.65378345     0.15600
H253        H  0.09235961  0.19871455  0.98314095     0.16200
C254        C  0.18246233  0.41839559  0.99264072    -0.13400
C255        C  0.15885014  0.42951833  0.02517361    -0.28600
H256        H  0.20760281  0.44728726  0.96893081     0.15600
H257        H  0.22554976  0.46653525  0.66328342     0.16200
C258        C  0.25719690  0.32762972  0.65154133    -0.13400
C259        C  0.29013573  0.34707918  0.68481080    -0.28600
H260        H  0.26816061  0.29351783  0.95247274     0.15600
H261        H  0.28145392  0.36393211  0.71342748     0.16200
C262        C  0.20592059  0.03805850  0.00800265    -0.13400
C263        C  0.23034607  0.07476077  0.97629285    -0.28600
H264        H  0.22188234  0.04020091  0.04190882     0.15600
H265        H  0.23062896  0.09289160  0.72323067     0.16200
C266        C  0.32828092  0.29197220  0.68370767    -0.13400
C267        C  0.36261969  0.27712190  0.68643881    -0.28600
H268        H  0.29085167  0.26425448  0.68139032     0.15600
H269        H  0.31549993  0.26204271  0.94622576     0.16200
C270        C  0.40531949  0.14517907  0.01204009    -0.13400
C271        C  0.45157342  0.18140512  0.00999488    -0.28600
H272        H  0.39868800  0.10735722  0.01171117     0.15600
H273        H  0.46711724  0.20203643  0.70817741     0.16200
C274        C  0.32435131  0.69337531  0.99994518     0.06100
C275        C  0.28084470  0.65368175  0.01442804    -0.10000
C276        C  0.29462480  0.62262088  0.34239010     0.03600
C277        C  0.34025066  0.62473420  0.33786704    -0.08500
C278        C  0.38173672  0.66991034  0.32927335     0.06100
C279        C  0.36650909  0.68807449  0.99719655    -0.08000
H280        H  0.24861307  0.65862404  0.01582751     0.11700
H281        H  0.34329433  0.59092259  0.33928879     0.09200
H282        H  0.39951450  0.71924468  0.98458762     0.09100
C283        C  0.20666474  0.82660344  0.99611465     0.06100
C284        C  0.16821037  0.77844450  0.99490824    -0.10000
C285        C  0.12607667  0.78790991  0.32141469     0.03600
C286        C  0.11788509  0.82940508  0.31717929    -0.08500
C287        C  0.15551804  0.87728971  0.32150462     0.06100
C288        C  0.19629059  0.86641974  0.99399613    -0.08000
H289        H  0.17506872  0.74701511  0.99611414     0.11700
H290        H  0.08220531  0.82538478  0.31065968     0.09200
H291        H  0.22641526  0.90297303  0.99308613     0.09100
C292        C  0.32964811  0.82098945  0.00971456     0.00500
C293        C  0.50891872  0.67606396  0.34251640     0.00500
C294        C  0.16427162  0.00960310  0.32691925     0.00500
Fe295      Fe  0.42837388  0.98275909  0.16535971     1.65800
Fe296      Fe  0.99506742  0.94146149  0.15510466     1.73200
Fe297      Fe  0.03643696  0.55537722  0.17075277     1.54400
O298        O  0.00681610  0.58478867  0.12142402    -0.78700
O299        O  0.05087209  0.96083590  0.20091036    -0.77000
O300        O  0.43997920  0.54265725  0.13294585    -0.81200
O301        O  0.44323657  0.54148821  0.23541109    -0.76000
O302        O  0.06648625  0.53905418  0.11531977    -0.77800
O303        O  0.44831088  0.89128225  0.20728067    -0.80600
C304        C  0.96828680  0.56950981  0.23767115     1.00200
C305        C  0.47815228  0.58027427  0.11833171     1.07600
O306        O  0.49511201  0.99248057  0.16528974    -1.09500
O307        O  0.46523674  0.91001839  0.10544607    -0.72000
O308        O  0.40350169  0.92535592  0.11934001    -0.75500
O309        O  0.01059988  0.57837428  0.22512821    -0.76100
C310        C  0.42342610  0.90442435  0.09694177     0.99100
O311        O  0.40870519  0.93403430  0.22138424    -0.74100
O312        O  0.04241265  0.97008187  0.09909148    -0.79300
C313        C  0.07546590  0.99732917  0.22545034     1.01700
C314        C  0.07570069  0.50354348  0.11081180     1.07700
O315        O  0.07287612  0.53245986  0.21959387    -0.74900
C316        C  0.41728316  0.89809041  0.23020336     1.06000
C317        C  0.12150342  0.98423004  0.03846526    -0.13400
C318        C  0.11239660  0.02042806  0.05298393    -0.28600
H319        H  0.10269011  0.94812690  0.05590695     0.15600
H320        H  0.11540694  0.53576709  0.04508017     0.15500
C321        C  0.14005783  0.02097489  0.28497719    -0.13400
C322        C  0.09956547  0.98732843  0.26569289    -0.28600
H323        H  0.15353594  0.52350078  0.25091823     0.15600
H324        H  0.08299408  0.94968470  0.27912472     0.16200
C325        C  0.51021653  0.64750623  0.30023580    -0.13400
C326        C  0.47692370  0.60109725  0.29185756    -0.28600
H327        H  0.02495840  0.66173497  0.26018731     0.15600
H328        H  0.44438504  0.58295833  0.31328411     0.16200
C329        C  0.47261495  0.61186857  0.08165514    -0.13400
C330        C  0.50598041  0.63442571  0.04747065    -0.28600
H331        H  0.43920516  0.61439835  0.08247928     0.15600
H332        H  0.02567569  0.65501664  0.06024329     0.16200
C333        C  0.39140628  0.86330481  0.26943175    -0.13400
C334        C  0.35964663  0.86945986  0.29676280    -0.28600
H335        H  0.40153408  0.83458786  0.27758124     0.15600
H336        H  0.35253840  0.90021252  0.28818204     0.16200
C337        C  0.39847490  0.87197283  0.05923462    -0.13400
C338        C  0.35104246  0.85377766  0.05081802    -0.28600
H339        H  0.42030131  0.86139549  0.03745459     0.15600
H340        H  0.32839734  0.86318847  0.07264091     0.16200
C341        C  0.03745127  0.72413425  0.32351353    -0.13400
C342        C  0.08523690  0.73612622  0.32044360    -0.28600
H343        H  0.02775073  0.73324478  0.96321085     0.15600
H344        H  0.09482933  0.70633756  0.31999641     0.16200
C345        C  0.14327210  0.91889489  0.32161117    -0.13400
C346        C  0.17611424  0.96710955  0.31835049    -0.28600
H347        H  0.10551249  0.90891884  0.32782380     0.15600
H348        H  0.20648754  0.95713397  0.00872150     0.16200
C349        C  0.25851633  0.83841253  0.00044615    -0.13400
C350        C  0.27564874  0.80554922  0.00539222    -0.28600
H351        H  0.29084322  0.89525075  0.33530867     0.15600
H352        H  0.25059504  0.76655173  0.00677203     0.16200
C353        C  0.21187152  0.56209372  0.32288742    -0.13400
C354        C  0.25108679  0.57411806  0.34915122    -0.28600
H355        H  0.21301794  0.58950469  0.29722565     0.15600
H356        H  0.19953806  0.57719920  0.03702840     0.16200
C357        C  0.33591824  0.77494500  0.01831001    -0.13400
C358        C  0.32421087  0.74003652  0.98711954    -0.28600
H359        H  0.34950681  0.76934758  0.05156352     0.15600
H360        H  0.30139443  0.75604744  0.29616562     0.16200
C361        C  0.42759027  0.66939574  0.31758800    -0.13400
C362        C  0.46506274  0.68576341  0.34666642    -0.28600
H363        H  0.42755763  0.64989305  0.28708036     0.15600
H364        H  0.45968394  0.70882357  0.01230661     0.16200
C365        C  0.33206247  0.71203790  0.33110978     0.06100
C366        C  0.29071949  0.66641259  0.33820849    -0.10000
C367        C  0.28931893  0.63516143  0.66061718     0.03600
C368        C  0.33465975  0.63633700  0.65396888    -0.08500
C369        C  0.37570666  0.68106462  0.64104457     0.06100
C370        C  0.37779775  0.71376527  0.32705406    -0.08000
H371        H  0.25546450  0.66508737  0.34074110     0.11700
H372        H  0.33812837  0.60302301  0.65950519     0.09200
H373        H  0.40960564  0.74859069  0.31947453     0.09100
C374        C  0.21277097  0.84397653  0.33184490     0.06100
C375        C  0.17417132  0.79578852  0.32794377    -0.10000
C376        C  0.13863336  0.79440783  0.66562444     0.03600
C377        C  0.12707832  0.83404291  0.66574076    -0.08500
C378        C  0.16394429  0.88347568  0.66060775     0.06100
C379        C  0.20252365  0.88389479  0.32922541    -0.08000
H380        H  0.18102467  0.76434082  0.33023876     0.11700
H381        H  0.08995299  0.82703810  0.66970634     0.09200
H382        H  0.23180908  0.92023920  0.33427901     0.09100
C383        C  0.33795424  0.84126128  0.34287595     0.00500
C384        C  0.49468171  0.67348994  0.66805297     0.00500
C385        C  0.17591378  0.01816006  0.66041339     0.00500
Fe386      Fe  0.44819927  0.00585629  0.50033880     1.65800
Fe387      Fe  0.00477018  0.93574029  0.49370301     1.73200
Fe388      Fe  0.05836131  0.57757107  0.49903581     1.54400
O389        O  0.02300418  0.59933788  0.44984345    -0.78700
O390        O  0.04832272  0.95477049  0.55023420    -0.77000
O391        O  0.44134489  0.53794587  0.45461204    -0.81200
O392        O  0.43926990  0.54158228  0.55744382    -0.76000
O393        O  0.09287248  0.56525970  0.44437302    -0.77800
O394        O  0.45239251  0.90265773  0.53279956    -0.80600
C395        C  0.98986369  0.58444989  0.57192127     1.00200
C396        C  0.47752629  0.57909976  0.44460365     1.07600
O397        O  0.51152357  0.00692953  0.50453123    -1.09500
O398        O  0.47898314  0.93245678  0.43365115    -0.72000
O399        O  0.42120794  0.95320165  0.44845255    -0.75500
O400        O  0.03127324  0.59913140  0.55345766    -0.76100
C401        C  0.43842781  0.93038111  0.42491270     0.99100
O402        O  0.41959895  0.95094387  0.55113115    -0.74100
O403        O  0.06259763  0.97232514  0.44639278    -0.79300
C404        C  0.07700632  0.99477277  0.56808264     1.01700
C405        C  0.09535883  0.52847378  0.42889609     1.07700
O406        O  0.09998433  0.56407051  0.54766921    -0.74900
C407        C  0.42348000  0.91169455  0.55669502     1.06000
C408        C  0.13184463  0.99692598  0.37065211    -0.13400
C409        C  0.11828724  0.02846539  0.38882297    -0.28600
H410        H  0.12008631  0.96150959  0.38877146     0.15600
H411        H  0.13526286  0.57086051  0.36613330     0.15500
C412        C  0.14733440  0.02514219  0.62030288    -0.13400
C413        C  0.10318249  0.99046174  0.60912275    -0.28600
H414        H  0.13160316  0.46358056  0.60099063     0.15600
H415        H  0.08647549  0.95591364  0.62912179     0.16200
C416        C  0.49884324  0.64516947  0.62684620    -0.13400
C417        C  0.46649673  0.59887188  0.61700559    -0.28600
H418        H  0.05957211  0.65198015  0.62239914     0.15600
H419        H  0.43229828  0.58039820  0.63594583     0.16200
C420        C  0.47301781  0.60828042  0.40499467    -0.13400
C421        C  0.51142493  0.64793178  0.38630422    -0.28600
H422        H  0.43759832  0.59571785  0.38982641     0.15600
H423        H  0.03993475  0.66463296  0.38792991     0.16200
C424        C  0.39466885  0.87515242  0.59321554    -0.13400
C425        C  0.37331628  0.88662224  0.62789023    -0.28600
H426        H  0.39489652  0.83997125  0.59323871     0.15600
H427        H  0.37671129  0.92354263  0.62759694     0.16200
C428        C  0.41145997  0.89910173  0.38618678    -0.13400
C429        C  0.36281693  0.87711510  0.38176699    -0.28600
H430        H  0.43256108  0.88996255  0.36207866     0.15600
H431        H  0.34102355  0.88462943  0.40647262     0.16200
C432        C  0.05469740  0.72249202  0.67731820    -0.13400
C433        C  0.10266214  0.74107333  0.66980683    -0.28600
H434        H  0.02730735  0.75332440  0.32498959     0.15600
H435        H  0.11682572  0.71489875  0.66697844     0.16200
C436        C  0.15182858  0.92529149  0.66348017    -0.13400
C437        C  0.18373919  0.97302571  0.65245525    -0.28600
H438        H  0.11620440  0.91646085  0.67708707     0.15600
H439        H  0.21372303  0.97652306  0.31255722     0.16200
C440        C  0.26495033  0.85637177  0.33745240    -0.13400
C441        C  0.28302634  0.82431851  0.34360300    -0.28600
H442        H  0.29505545  0.89263370  0.62213621     0.15600
H443        H  0.25815177  0.78534005  0.34767281     0.16200
C444        C  0.22710091  0.54926369  0.65146998    -0.13400
C445        C  0.24567470  0.59003139  0.67638791    -0.28600
H446        H  0.24720637  0.54903339  0.62073672     0.15600
H447        H  0.25265352  0.54674512  0.37301859     0.16200
C448        C  0.34636184  0.79595562  0.35014805    -0.13400
C449        C  0.32590260  0.75670765  0.32318849    -0.28600
H450        H  0.36872450  0.79479484  0.37858915     0.15600
H451        H  0.29648791  0.77279438  0.61767592     0.16200
C452        C  0.42457182  0.68466614  0.63590685    -0.13400
C453        C  0.44447981  0.67071514  0.67086345    -0.28600
H454        H  0.44579842  0.70230028  0.60461382     0.15600
H455        H  0.46291760  0.70445558  0.37723339     0.16200
C456        C  0.32586510  0.72282925  0.64199329     0.06100
C457        C  0.28536991  0.67856623  0.65456008    -0.10000
C458        C  0.27785268  0.60765294  0.02555506     0.03600
C459        C  0.32035187  0.60215048  0.02296403    -0.08500
C460        C  0.36520433  0.64245501  0.00922946     0.06100
C461        C  0.37076329  0.72388917  0.63458520    -0.08000
H462        H  0.25089308  0.67814143  0.66082791     0.11700
H463        H  0.31901108  0.56695547  0.03152183     0.09200
H464        H  0.40226600  0.75851344  0.62544307     0.09100
C465        C  0.22372935  0.85353479  0.65557199     0.06100
C466        C  0.18722480  0.80506853  0.66064377    -0.10000
C467        C  0.12001362  0.77017664  0.99230614     0.03600
C468        C  0.11053890  0.81097172  0.99227372    -0.08500
C469        C  0.14843064  0.85935088  0.99337060     0.06100
C470        C  0.21219595  0.89223821  0.65554512    -0.08000
H471        H  0.19684349  0.77537869  0.65990401     0.11700
H472        H  0.07368710  0.80544204  0.99288076     0.09200
H473        H  0.24197003  0.92902847  0.65331046     0.09100
C474        C  0.34789919  0.85353003  0.67040359     0.00500
C475        C  0.50187302  0.66592098  0.00692885     0.00500
C476        C  0.15798590  0.99194765  0.99963144     0.00500
Fe477      Fe  0.43452997  0.01207051  0.84973860     1.65800
Fe478      Fe  0.02333095  0.95309776  0.82897095     1.73200
Fe479      Fe  0.07965254  0.54427630  0.84249091     1.54400
O480        O  0.05722470  0.58059348  0.79159364    -0.78700
O481        O  0.07267183  0.98282833  0.88033798    -0.77000
O482        O  0.44970184  0.54299673  0.78716668    -0.81200
O483        O  0.45234259  0.54087008  0.89098408    -0.76000
O484        O  0.10816946  0.52344479  0.78759966    -0.77800
O485        O  0.42178138  0.90458582  0.89266333    -0.80600
C486        C  0.01869299  0.57188579  0.90749030     1.00200
C487        C  0.48375979  0.58319239  0.77148177     1.07600
O488        O  0.48997230  0.99818433  0.84437062    -1.09500
O489        O  0.43131311  0.91461992  0.79066708    -0.72000
O490        O  0.39105914  0.95643652  0.80610180    -0.75500
O491        O  0.05826065  0.57275686  0.89603221    -0.76100
C492        C  0.39746270  0.92553642  0.78277977     0.99100
O493        O  0.40705165  0.96701521  0.90762257    -0.74100
O494        O  0.07571879  0.98842540  0.77719351    -0.79300
C495        C  0.09485530  0.02467803  0.89791242     1.01700
C496        C  0.10864766  0.48316481  0.78076974     1.07700
O497        O  0.10586856  0.51249827  0.89497195    -0.74900
C498        C  0.40124160  0.92395597  0.91621784     1.06000
C499        C  0.14880555  0.01189127  0.70675383    -0.13400
C500        C  0.13267400  0.04332608  0.72051393    -0.28600
H501        H  0.13973203  0.97913808  0.72858422     0.15600
H502        H  0.14924952  0.45028602  0.74723174     0.15500
C503        C  0.13555652  0.99361810  0.95293459    -0.13400
C504        C  0.12316859  0.02879649  0.93976804    -0.28600
H505        H  0.17023847  0.52668710  0.96146851     0.15600
H506        H  0.13278358  0.06056763  0.96063548     0.16200
C507        C  0.50577900  0.64458378  0.96089761    -0.13400
C508        C  0.47881734  0.59726753  0.95045520    -0.28600
H509        H  0.95590785  0.60643963  0.92969746     0.15600
H510        H  0.45075321  0.57194108  0.97421608     0.16200
C511        C  0.47296485  0.60658908  0.73080766    -0.13400
C512        C  0.50380246  0.65154150  0.71323751    -0.28600
H513        H  0.43864977  0.58533206  0.71420722     0.15600
H514        H  0.06606745  0.66617225  0.74300475     0.16200
C515        C  0.36976185  0.89605167  0.95573203    -0.13400
C516        C  0.35732693  0.84838533  0.96540853    -0.28600
H517        H  0.35901217  0.91642816  0.97885097     0.15600
H518        H  0.37103987  0.82997568  0.94273036     0.16200
C519        C  0.36443690  0.90130195  0.74471238    -0.13400
C520        C  0.37790401  0.88025075  0.71134244    -0.28600
H521        H  0.33007839  0.90217313  0.74351373     0.15600
H522        H  0.41424310  0.88370912  0.71226490     0.16200
C523        C  0.03464056  0.70528137  0.98071779    -0.13400
C524        C  0.08039385  0.71830628  0.99407710    -0.28600
H525        H  0.03940998  0.74747900  0.68147923     0.15600
H526        H  0.08906479  0.69032878  0.00864200     0.16200
C527        C  0.13666600  0.90145067  0.99383821    -0.13400
C528        C  0.16950896  0.94861236  0.00122214    -0.28600
H529        H  0.09939041  0.89345881  0.98782715     0.15600
H530        H  0.21821988  0.98093797  0.63678443     0.16200
C531        C  0.27451749  0.86465948  0.64859565    -0.13400
C532        C  0.29543265  0.84360710  0.67567321    -0.28600
H533        H  0.28409044  0.87705172  0.00126953     0.15600
H534        H  0.27412388  0.81829642  0.70388435     0.16200
C535        C  0.21536469  0.51855449  0.03501088    -0.13400
C536        C  0.22837519  0.56686866  0.03573835    -0.28600
H537        H  0.24302272  0.50658227  0.03390832     0.15600
H538        H  0.22571359  0.59312628  0.70575025     0.16200
C539        C  0.34834356  0.80423045  0.66988791    -0.13400
C540        C  0.32201582  0.76876811  0.64077820    -0.28600
H541        H  0.37104873  0.79698483  0.69441883     0.15600
H542        H  0.30874685  0.74319867  0.95424068     0.16200
C543        C  0.40935299  0.63507829  0.00627497    -0.13400
C544        C  0.45527401  0.67200482  0.00845268    -0.28600
H545        H  0.40336095  0.59749058  0.00539788     0.15600
H546        H  0.42310790  0.65593277  0.70268503     0.16200
C547        C  0.82183987  0.20555777  0.98385038     0.06100
C548        C  0.77713313  0.16402749  0.98654341    -0.10000
C549        C  0.78851593  0.13321246  0.33130304     0.03600
C550        C  0.82684262  0.12244801  0.32129875    -0.08500
C551        C  0.87443800  0.16061881  0.31693651     0.06100
C552        C  0.86454282  0.20115698  0.98783339    -0.08000
H553        H  0.74465677  0.16838363  0.98320806     0.11700
H554        H  0.82046610  0.08511370  0.31691245     0.09200
H555        H  0.89859584  0.23435584  0.98453480     0.09100
C556        C  0.71206619  0.32978718  0.96607209     0.06100
C557        C  0.67238729  0.28541841  0.98111435    -0.10000
C558        C  0.62108898  0.28143243  0.33665313     0.03600
C559        C  0.61054232  0.32136470  0.33956705    -0.08500
C560        C  0.64780140  0.36968109  0.34310390     0.06100
C561        C  0.70624661  0.37181465  0.95789982    -0.08000
H562        H  0.67696880  0.25274202  0.98686998     0.11700
H563        H  0.57379566  0.31587067  0.33847420     0.09200
H564        H  0.73727280  0.40630913  0.94732818     0.09100
C565        C  0.83306863  0.33401393  0.00379421     0.00500
C566        C  0.00176423  0.17026257  0.33369360     0.00500
C567        C  0.66450393  0.50445323  0.34286888     0.00500
Fe568      Fe  0.91488878  0.48181969  0.17144378     1.65800
Fe569      Fe  0.49799073  0.43558532  0.17190740     1.73200
Fe570      Fe  0.55040869  0.05927283  0.16746594     1.54400
O571        O  0.51975169  0.08899287  0.11955732    -0.78700
O572        O  0.54292857  0.45181847  0.22713292    -0.77000
O573        O  0.94363085  0.06219330  0.12802564    -0.81200
O574        O  0.94309934  0.03679720  0.22828175    -0.76000
O575        O  0.58502088  0.04828356  0.11178869    -0.77800
O576        O  0.92586785  0.38645889  0.21211766    -0.80600
C577        C  0.47866497  0.06959353  0.23242484     1.00200
C578        C  0.98130507  0.09347109  0.10630495     1.07600
O579        O  0.98051631  0.48994501  0.17283975    -1.09500
O580        O  0.95692641  0.41030314  0.11448491    -0.72000
O581        O  0.89323654  0.42424049  0.12496612    -0.75500
O582        O  0.52171695  0.07904951  0.22228601    -0.76100
C583        C  0.91601274  0.40563813  0.10284974     0.99100
O584        O  0.89278855  0.43450018  0.22817663    -0.74100
O585        O  0.55474333  0.46777753  0.12465581    -0.79300
C586        C  0.57315972  0.49080487  0.24549677     1.01700
C587        C  0.58872848  0.01139037  0.09831799     1.07700
O588        O  0.58716307  0.03656950  0.21618959    -0.74900
C589        C  0.89519459  0.39478167  0.23396607     1.06000
C590        C  0.62683401  0.48420591  0.05659906    -0.13400
C591        C  0.61277081  0.51796207  0.06764765    -0.28600
H592        H  0.61750765  0.45343473  0.08131959     0.15600
H593        H  0.63320457  0.05281964  0.03755423     0.15500
C594        C  0.64074976  0.51583961  0.30095485    -0.13400
C595        C  0.59662724  0.48356237  0.28728253    -0.28600
H596        H  0.66874740  0.05274746  0.26704252     0.15600
H597        H  0.57743901  0.44856021  0.30641298     0.16200
C598        C  0.00653799  0.14536491  0.29037220    -0.13400
C599        C  0.97781761  0.09752938  0.28277183    -0.28600
H600        H  0.53543665  0.15982916  0.26519514     0.15600
H601        H  0.94871845  0.07529525  0.30709578     0.16200
C602        C  0.97467387  0.12598597  0.07100009    -0.13400
C603        C  0.00376270  0.14405849  0.03328751    -0.28600
H604        H  0.94334269  0.13205824  0.07495156     0.15600
H605        H  0.53055804  0.16795190  0.07136752     0.16200
C606        C  0.86175668  0.35781104  0.26823998    -0.13400
C607        C  0.86171318  0.37078865  0.31220497    -0.28600
H608        H  0.84010960  0.32005571  0.25837306     0.15600
H609        H  0.88597818  0.40902600  0.31950702     0.16200
C610        C  0.89572404  0.37727178  0.06162733    -0.13400
C611        C  0.85031235  0.36242393  0.04769613    -0.28600
H612        H  0.91941323  0.36755130  0.04167203     0.15600
H613        H  0.82608894  0.37129620  0.06779489     0.16200
C614        C  0.53392931  0.21342902  0.33553302    -0.13400
C615        C  0.58236223  0.22897882  0.33247374    -0.28600
H616        H  0.53258173  0.24937644  0.97219346     0.15600
H617        H  0.59429155  0.20137531  0.32726915     0.16200
C618        C  0.63643538  0.41127691  0.34739126    -0.13400
C619        C  0.66834082  0.45766333  0.33318934    -0.28600
H620        H  0.60194994  0.40350553  0.36320186     0.15600
H621        H  0.63126854  0.40585766  0.03482091     0.16200
C622        C  0.76123990  0.33491493  0.96282798    -0.13400
C623        C  0.77982020  0.32041018  0.99864893    -0.28600
H624        H  0.78652906  0.39311567  0.34499097     0.15600
H625        H  0.75591312  0.29956239  0.02763576     0.16200
C626        C  0.72118460  0.04604741  0.33707981    -0.13400
C627        C  0.73673948  0.09506542  0.33441460    -0.28600
H628        H  0.74723121  0.03199515  0.33968908     0.15600
H629        H  0.69467002  0.08485277  0.98938401     0.16200
C630        C  0.83689011  0.28638463  0.00928655    -0.13400
C631        C  0.82222858  0.25320602  0.97624511    -0.28600
H632        H  0.85078448  0.27824215  0.04123462     0.15600
H633        H  0.88812580  0.29904677  0.30947095     0.16200
C634        C  0.91555145  0.15065636  0.30982405    -0.13400
C635        C  0.95358364  0.17111768  0.33807205    -0.28600
H636        H  0.91447199  0.12846793  0.28114164     0.15600
H637        H  0.95833435  0.21981047  0.99598159     0.16200
C638        C  0.84691935  0.22077388  0.33067353     0.06100
C639        C  0.79914134  0.18266112  0.33590054    -0.10000
C640        C  0.77689457  0.12275595  0.66887548     0.03600
C641        C  0.81788713  0.11612847  0.66017118    -0.08500
C642        C  0.86271345  0.15687534  0.64893837     0.06100
C643        C  0.88390673  0.20944690  0.32057957    -0.08000
H644        H  0.76986857  0.19152554  0.34206449     0.11700
H645        H  0.81564052  0.07989742  0.66211388     0.09200
H646        H  0.92060927  0.23891648  0.31586945     0.09100
C647        C  0.70801255  0.34004603  0.34218472     0.06100
C648        C  0.67023855  0.29147873  0.33734161    -0.10000
C649        C  0.64227775  0.30318157  0.66342485     0.03600
C650        C  0.63415456  0.34492988  0.66077491    -0.08500
C651        C  0.67297616  0.39317365  0.66305246     0.06100
C652        C  0.69587987  0.37816989  0.34537306    -0.08000
H653        H  0.67832736  0.26109248  0.33422450     0.11700
H654        H  0.59792956  0.34051542  0.65688477     0.09200
H655        H  0.72448355  0.41493990  0.35085344     0.09100
C656        C  0.83242166  0.33678411  0.35338505     0.00500
C657        C  0.99171721  0.16687885  0.65902097     0.00500
C658        C  0.68391698  0.52754314  0.66427371     0.00500
Fe659      Fe  0.93736479  0.49551421  0.50805179     1.65800
Fe660      Fe  0.50712149  0.44208398  0.50554973     1.73200
Fe661      Fe  0.57029325  0.06828712  0.51872746     1.54400
O662        O  0.55298163  0.10911011  0.47036940    -0.78700
O663        O  0.54696652  0.46038886  0.56421282    -0.77000
O664        O  0.94049455  0.03561572  0.44827246    -0.81200
O665        O  0.93705287  0.03296770  0.55141392    -0.76000
O666        O  0.61259416  0.06072057  0.46823715    -0.77800
O667        O  0.97430609  0.41472563  0.55590923    -0.80600
C668        C  0.49656992  0.08231859  0.57781370     1.00200
C669        C  0.97748731  0.07536793  0.43628989     1.07600
O670        O  0.00583705  0.50875261  0.50286982    -1.09500
O671        O  0.96972724  0.41687076  0.45316480    -0.72000
O672        O  0.91208270  0.43986711  0.46104637    -0.75500
O673        O  0.53859028  0.08714598  0.57133957    -0.76100
C674        C  0.92879699  0.41371196  0.44290667     0.99100
O675        O  0.92190919  0.44488985  0.56223821    -0.74100
O676        O  0.56808498  0.47892661  0.46224859    -0.79300
C677        C  0.57886574  0.50113636  0.57809859     1.01700
C678        C  0.61134885  0.02451549  0.44775037     1.07700
O679        O  0.59171361  0.03210976  0.56846846    -0.74900
C680        C  0.93826338  0.41565713  0.57540399     1.06000
C681        C  0.63587514  0.49834327  0.38800654    -0.13400
C682        C  0.62134784  0.53091229  0.40162513    -0.28600
H683        H  0.62619264  0.46586805  0.41037828     0.15600
H684        H  0.68480943  0.06386425  0.41548622     0.15500
C685        C  0.65362295  0.53088832  0.62368732    -0.13400
C686        C  0.60700632  0.49855748  0.61810028    -0.28600
H687        H  0.66251526  0.03861169  0.61717297     0.15600
H688        H  0.58879752  0.46787031  0.64272595     0.16200
C689        C  0.99400122  0.13890598  0.61677267    -0.13400
C690        C  0.96493976  0.09082368  0.61018022    -0.28600
H691        H  0.54831607  0.17519768  0.60143630     0.15600
H692        H  0.93396677  0.06965480  0.63289711     0.16200
C693        C  0.97200424  0.10370386  0.39673551    -0.13400
C694        C  0.00869398  0.14447890  0.37716599    -0.28600
H695        H  0.93610488  0.08914264  0.38220635     0.15600
H696        H  0.46862461  0.08643660  0.36792597     0.16200
C697        C  0.91495670  0.38166271  0.61569187    -0.13400
C698        C  0.87111323  0.37290638  0.63204347    -0.28600
H699        H  0.93398406  0.36331277  0.63166662     0.15600
H700        H  0.85156942  0.38867976  0.61242268     0.16200
C701        C  0.90098760  0.37905895  0.40697823    -0.13400
C702        C  0.85408609  0.36535602  0.39699361    -0.28600
H703        H  0.92091782  0.36557804  0.38596095     0.15600
H704        H  0.83300469  0.37732705  0.41815043     0.16200
C705        C  0.55505950  0.23579248  0.66583048    -0.13400
C706        C  0.60305860  0.25071187  0.66235972    -0.28600
H707        H  0.52093767  0.23992229  0.34147069     0.15600
H708        H  0.61440079  0.22220845  0.66109864     0.16200
C709        C  0.66235012  0.43614779  0.66303188    -0.13400
C710        C  0.69570734  0.48447666  0.65789516    -0.28600
H711        H  0.62505752  0.42708319  0.67017121     0.15600
H712        H  0.69901854  0.46250738  0.31173602     0.16200
C713        C  0.76083298  0.35418629  0.34478165    -0.13400
C714        C  0.77858228  0.32204180  0.34862331    -0.28600
H715        H  0.80839755  0.40552186  0.67362663     0.15600
H716        H  0.75324202  0.28311428  0.34872051     0.16200
C717        C  0.71534876  0.03316701  0.68239150    -0.13400
C718        C  0.72792871  0.08171819  0.67987541    -0.28600
H719        H  0.74277400  0.02091071  0.68108655     0.15600
H720        H  0.70961329  0.10791565  0.33311286     0.16200
C721        C  0.83399782  0.28808875  0.35894313    -0.13400
C722        C  0.85884988  0.27308419  0.33183212    -0.28600
H723        H  0.80997392  0.26222051  0.38553673     0.15600
H724        H  0.80769844  0.26601712  0.61895054     0.16200
C725        C  0.90526409  0.14954762  0.63909665    -0.13400
C726        C  0.94509929  0.17106551  0.66481373    -0.28600
H727        H  0.90250656  0.12526620  0.61171383     0.15600
H728        H  0.95026869  0.19074651  0.36747928     0.16200
C729        C  0.82561195  0.21092236  0.65262404     0.06100
C730        C  0.78122586  0.17034515  0.66415603    -0.10000
C731        C  0.77351919  0.11737278  0.99408882     0.03600
C732        C  0.81631197  0.11253878  0.99771937    -0.08500
C733        C  0.86230293  0.15419833  0.99429713     0.06100
C734        C  0.86662686  0.20435437  0.64594815    -0.08000
H735        H  0.74978329  0.17604064  0.66938088     0.11700
H736        H  0.81457737  0.07671309  0.00253725     0.09200
H737        H  0.90106726  0.23581726  0.63684644     0.09100
C738        C  0.72915552  0.35819664  0.67098422     0.06100
C739        C  0.68995249  0.31066415  0.66800942    -0.10000
C740        C  0.62684892  0.28301469  0.98835265     0.03600
C741        C  0.62235913  0.32663120  0.98324282    -0.08500
C742        C  0.66231650  0.37115188  0.96840780     0.06100
C743        C  0.72014319  0.39898864  0.66852211    -0.08000
H744        H  0.69569553  0.27860901  0.66932268     0.11700
H745        H  0.58847960  0.32649121  0.99165581     0.09200
H746        H  0.75030961  0.43520725  0.67183597     0.09100
C747        C  0.84750432  0.34293377  0.67673581     0.00500
C748        C  0.99796674  0.17449694  0.99264791     0.00500
C749        C  0.65003391  0.48377194  0.00995376     0.00500
Fe750      Fe  0.95645300  0.48600189  0.84262870     1.65800
Fe751      Fe  0.52995260  0.45604411  0.82981729     1.73200
Fe752      Fe  0.55676349  0.05243193  0.83876389     1.54400
O753        O  0.53762161  0.09223492  0.78852193    -0.78700
O754        O  0.57684947  0.48177851  0.88345085    -0.77000
O755        O  0.94149651  0.03928636  0.78260186    -0.81200
O756        O  0.94389915  0.03796332  0.88656846    -0.76000
O757        O  0.57584527  0.02273528  0.78460222    -0.77800
O758        O  0.95263205  0.38256376  0.87738789    -0.80600
C759        C  0.51191733  0.09378006  0.90869143     1.00200
C760        C  0.97630164  0.07735669  0.76404224     1.07600
O761        O  0.01811224  0.48410491  0.84218206    -1.09500
O762        O  0.98311230  0.40657791  0.77949906    -0.72000
O763        O  0.92609186  0.42879486  0.79580813    -0.75500
O764        O  0.54738461  0.08925750  0.89288110    -0.76100
C765        C  0.94378602  0.40744449  0.77053680     0.99100
O766        O  0.93105730  0.43827224  0.89913922    -0.74100
O767        O  0.58439443  0.49465894  0.78070505    -0.79300
C768        C  0.60336589  0.52379815  0.89914357     1.01700
C769        C  0.56423036  0.97895700  0.77427919     1.07700
O770        O  0.58206539  0.01757313  0.88781840    -0.74900
C771        C  0.92826746  0.39586408  0.90304935     1.06000
C772        C  0.65635296  0.51981350  0.71011000    -0.13400
C773        C  0.63942460  0.55048095  0.72373819    -0.28600
H774        H  0.64800985  0.48695466  0.73159842     0.15600
H775        H  0.56988638  0.93654338  0.71708346     0.15500
C776        C  0.61989931  0.48977368  0.97082681    -0.13400
C777        C  0.63511700  0.52633619  0.93775337    -0.28600
H778        H  0.65712312  0.02514392  0.93301222     0.15600
H779        H  0.67067434  0.55774011  0.93786093     0.16200
C780        C  0.99879219  0.15017613  0.94726892    -0.13400
C781        C  0.97063644  0.10199667  0.93958067    -0.28600
H782        H  0.45483388  0.12905048  0.94219954     0.15600
H783        H  0.94314356  0.07866292  0.96480156     0.16200
C784        C  0.96580497  0.10099849  0.72334105    -0.13400
C785        C  0.99973283  0.14323869  0.70332271    -0.28600
H786        H  0.92966570  0.08305938  0.70935219     0.15600
H787        H  0.56097022  0.17541033  0.73062172     0.16200
C788        C  0.89630341  0.36014843  0.93852066    -0.13400
C789        C  0.86476179  0.36819589  0.96404368    -0.28600
H790        H  0.90039837  0.32721949  0.94409872     0.15600
H791        H  0.86334736  0.40271775  0.95830092     0.16200
C792        C  0.91847958  0.38170908  0.72925447    -0.13400
C793        C  0.87313022  0.37231239  0.71873946    -0.28600
H794        H  0.93748944  0.36764686  0.70793857     0.15600
H795        H  0.85364872  0.38450946  0.74183202     0.16200
C796        C  0.53917943  0.22310821  0.99325982    -0.13400
C797        C  0.58547574  0.23482839  0.00283392    -0.28600
H798        H  0.54292913  0.26358070  0.66769754     0.15600
H799        H  0.59382332  0.20726491  0.01900512     0.16200
C800        C  0.66100504  0.41863260  0.96808252    -0.13400
C801        C  0.64603773  0.43253343  0.00584575    -0.28600
H802        H  0.67844141  0.44507252  0.93942780     0.15600
H803        H  0.73312007  0.49388722  0.65053587     0.16200
C804        C  0.78038008  0.36741293  0.67529405    -0.13400
C805        C  0.79443399  0.33191211  0.67873792    -0.28600
H806        H  0.78396779  0.35724078  0.93395756     0.15600
H807        H  0.76754155  0.29365104  0.68187109     0.16200
C808        C  0.71260108  0.02822770  0.00311121    -0.13400
C809        C  0.72378689  0.07575386  0.99625468    -0.28600
H810        H  0.74156654  0.01852810  0.00841994     0.15600
H811        H  0.69891601  0.09184639  0.68224877     0.16200
C812        C  0.84946372  0.29405491  0.67831875    -0.13400
C813        C  0.82806310  0.25986525  0.64667113    -0.28600
H814        H  0.86719108  0.28546739  0.70707194     0.15600
H815        H  0.80550316  0.25909835  0.94525088     0.16200
C816        C  0.90623910  0.14609257  0.99571433    -0.13400
C817        C  0.95250020  0.18227272  0.99540822    -0.28600
H818        H  0.89980900  0.10829180  0.99734638     0.15600
H819        H  0.94424291  0.19312899  0.69318780     0.16200
C820        C  0.82195876  0.69477844  0.97663963     0.06100
C821        C  0.77630920  0.65603978  0.98744670    -0.10000
C822        C  0.78023825  0.63357501  0.33820717     0.03600
C823        C  0.82066004  0.62524114  0.33054837    -0.08500
C824        C  0.86679692  0.66493071  0.32114857     0.06100
C825        C  0.86257166  0.68658501  0.97727090    -0.08000
H826        H  0.74526510  0.66304024  0.98720887     0.11700
H827        H  0.81697126  0.58847311  0.33081945     0.09200
H828        H  0.89738002  0.71701733  0.96768498     0.09100
C829        C  0.72092640  0.83315956  0.99227650     0.06100
C830        C  0.68157138  0.78532682  0.99927064    -0.10000
C831        C  0.61379031  0.80164498  0.30099825     0.03600
C832        C  0.62200745  0.85071872  0.29815581    -0.08500
C833        C  0.66967905  0.88953707  0.29543441     0.06100
C834        C  0.71082703  0.87228930  0.98108499    -0.08000
H835        H  0.68785581  0.75436299  0.00849055     0.11700
H836        H  0.59164645  0.85870953  0.29923343     0.09200
H837        H  0.74018761  0.90944892  0.97667033     0.09100
C838        C  0.84524544  0.82728113  0.99849062     0.00500
C839        C  0.99575853  0.67119759  0.32862701     0.00500
C840        C  0.66775645  0.00882407  0.33307571     0.00500
Fe841      Fe  0.92508771  0.99878815  0.16838304     1.65800
Fe842      Fe  0.50610290  0.93464175  0.16245892     1.73200
Fe843      Fe  0.54869377  0.56048085  0.18191673     1.54400
O844        O  0.52008939  0.59199819  0.13421794    -0.78700
O845        O  0.54743957  0.95432488  0.21912048    -0.77000
O846        O  0.93028889  0.52773284  0.11399727    -0.81200
O847        O  0.93027408  0.53792605  0.21826665    -0.76000
O848        O  0.58239693  0.54860595  0.12588783    -0.77800
O849        O  0.95149173  0.90819376  0.21213079    -0.80600
C850        C  0.48166854  0.57404216  0.25241595     1.00200
C851        C  0.96689455  0.56669216  0.10003126     1.07600
O852        O  0.98956206  0.00220337  0.16243948    -1.09500
O853        O  0.93821171  0.91295453  0.10883488    -0.72000
O854        O  0.90097892  0.95984741  0.10885568    -0.75500
O855        O  0.52337119  0.58354361  0.23732516    -0.76100
C856        C  0.90749999  0.92556082  0.09245708     0.99100
O857        O  0.89712750  0.93585382  0.21081580    -0.74100
O858        O  0.56529910  0.96876552  0.11745556    -0.79300
C859        C  0.57832734  0.99461790  0.23440515     1.01700
C860        C  0.58198191  0.51104425  0.10890601     1.07700
O861        O  0.58206183  0.53388840  0.23042575    -0.74900
C862        C  0.91468728  0.90943763  0.22873579     1.06000
C863        C  0.63161712  0.98336475  0.04437087    -0.13400
C864        C  0.62056608  0.01859975  0.05767643    -0.28600
H865        H  0.61761319  0.94948073  0.06571550     0.15600
H866        H  0.62029106  0.54924612  0.04438235     0.15500
C867        C  0.64698656  0.02035215  0.28903810    -0.13400
C868        C  0.60190992  0.98952591  0.27654248    -0.28600
H869        H  0.66049058  0.54983832  0.28037378     0.15600
H870        H  0.58154406  0.95560803  0.29710175     0.16200
C871        C  0.99583614  0.64288611  0.28566588    -0.13400
C872        C  0.96320890  0.59588240  0.27769490    -0.28600
H873        H  0.54114283  0.66501575  0.27642501     0.15600
H874        H  0.93221431  0.57617267  0.30080827     0.16200
C875        C  0.96196506  0.58938828  0.05572616    -0.13400
C876        C  0.99499118  0.63363142  0.03874360    -0.28600
H877        H  0.93069197  0.56729823  0.03536150     0.15600
H878        H  0.53821582  0.62931222  0.04793445     0.16200
C879        C  0.89316558  0.88064076  0.27200756    -0.13400
C880        C  0.84880537  0.87110953  0.28680735    -0.28600
H881        H  0.91475670  0.86789310  0.29215393     0.15600
H882        H  0.82865860  0.88420944  0.26456005     0.16200
C883        C  0.87837499  0.89988128  0.05221830    -0.13400
C884        C  0.87267946  0.85538953  0.04077060    -0.28600
H885        H  0.86199385  0.91828002  0.03184979     0.15600
H886        H  0.88975515  0.83887432  0.06304758     0.16200
C887        C  0.55465875  0.72534367  0.34012489    -0.13400
C888        C  0.56427021  0.76036918  0.30655859    -0.28600
H889        H  0.53873353  0.74813265  0.01505253     0.15600
H890        H  0.53670458  0.75739104  0.28206946     0.16200
C891        C  0.67975139  0.94150401  0.29629313    -0.13400
C892        C  0.66258848  0.95693920  0.33126834    -0.28600
H893        H  0.70281170  0.96749741  0.26940392     0.15600
H894        H  0.68331113  0.93347938  0.03176689     0.16200
C895        C  0.77327838  0.84539837  0.99503344    -0.13400
C896        C  0.79090853  0.81310139  0.00267099    -0.28600
H897        H  0.74624928  0.79572827  0.27817489     0.15600
H898        H  0.76552942  0.77461143  0.00929765     0.16200
C899        C  0.71662687  0.54515037  0.34748413    -0.13400
C900        C  0.72947682  0.59350240  0.34400683    -0.28600
H901        H  0.74486390  0.53410811  0.35063615     0.15600
H902        H  0.69391275  0.58335603  0.01737252     0.16200
C903        C  0.84988614  0.77981896  0.99765828    -0.13400
C904        C  0.82630335  0.74430854  0.96768144    -0.28600
H905        H  0.87035466  0.77225042  0.02443488     0.15600
H906        H  0.85732460  0.78889124  0.28172945     0.16200
C907        C  0.90859342  0.65605383  0.31074427    -0.13400
C908        C  0.94916608  0.67593497  0.33608104    -0.28600
H909        H  0.90500130  0.63315828  0.28192143     0.15600
H910        H  0.95281104  0.70093262  0.99783142     0.16200
C911        C  0.83231691  0.72146716  0.32408539     0.06100
C912        C  0.78695767  0.68206808  0.33543952    -0.10000
C913        C  0.81380981  0.63338347  0.68817071     0.03600
C914        C  0.85790053  0.63169295  0.68315360    -0.08500
C915        C  0.90096528  0.67522042  0.67401755     0.06100
C916        C  0.87219891  0.71285544  0.31753477    -0.08000
H917        H  0.75609064  0.68897941  0.33924838     0.11700
H918        H  0.85826893  0.59654522  0.68360749     0.09200
H919        H  0.90717973  0.74332281  0.30802090     0.09100
C920        C  0.70051438  0.82994935  0.29839282     0.06100
C921        C  0.65335415  0.79157516  0.30033541    -0.10000
C922        C  0.62500935  0.78614124  0.65338172     0.03600
C923        C  0.62560455  0.83248387  0.65543065    -0.08500
C924        C  0.66992659  0.87632425  0.64928924     0.06100
C925        C  0.70855162  0.87886604  0.29486184    -0.08000
H926        H  0.64746496  0.75386122  0.30287263     0.11700
H927        H  0.59243115  0.83472941  0.66117758     0.09200
H928        H  0.74524105  0.90874708  0.29342758     0.09100
C929        C  0.82523201  0.84501225  0.33314432     0.00500
C930        C  0.02096263  0.66677829  0.68082992     0.00500
C931        C  0.66192584  0.99475783  0.68207604     0.00500
Fe932      Fe  0.92556842  0.98318791  0.50019905     1.65800
Fe933      Fe  0.51528731  0.94574548  0.49483074     1.73200
Fe934      Fe  0.54845900  0.56553375  0.51287464     1.54400
O935        O  0.51709767  0.59540211  0.46653918    -0.78700
O936        O  0.55095461  0.95174118  0.55540079    -0.77000
O937        O  0.94504400  0.54388393  0.45317042    -0.81200
O938        O  0.95224632  0.54836512  0.55718321    -0.76000
O939        O  0.58309367  0.55710297  0.45600913    -0.77800
O940        O  0.94803032  0.89056041  0.53939704    -0.80600
C941        C  0.47543566  0.57287202  0.57884694     1.00200
C942        C  0.98012518  0.58185439  0.43483677     1.07600
O943        O  0.99256862  0.99309027  0.49941726    -1.09500
O944        O  0.96188845  0.91047159  0.43715341    -0.72000
O945        O  0.90356953  0.93145394  0.44922353    -0.75500
O946        O  0.51864732  0.58233433  0.56903237    -0.76100
C947        C  0.92200458  0.90914460  0.42675430     0.99100
O948        O  0.90506273  0.93024057  0.55223213    -0.74100
O949        O  0.57858241  0.98063206  0.45574651    -0.79300
C950        C  0.57927521  0.98711946  0.57919896     1.01700
C951        C  0.58933831  0.52165095  0.44269126     1.07700
O952        O  0.58659288  0.54259158  0.55944894    -0.74900
C953        C  0.91517321  0.89542717  0.56127006     1.06000
C954        C  0.63577238  0.00694465  0.37390056    -0.13400
C955        C  0.64860344  0.03396760  0.41176219    -0.28600
H956        H  0.59804237  0.97929355  0.37215751     0.15600
H957        H  0.63083821  0.56429060  0.38078326     0.15500
C958        C  0.64083208  0.00503788  0.63782277    -0.13400
C959        C  0.59756252  0.97436099  0.62158339    -0.28600
H960        H  0.67017010  0.56106874  0.59797637     0.15600
H961        H  0.57627037  0.93825981  0.63812979     0.16200
C962        C  0.02370377  0.64332047  0.63534552    -0.13400
C963        C  0.98497059  0.60941215  0.61301169    -0.28600
H964        H  0.53022303  0.66361600  0.60373214     0.15600
H965        H  0.94858266  0.59692955  0.62661444     0.16200
C966        C  0.97020795  0.60547509  0.39345848    -0.13400
C967        C  0.00449023  0.64691114  0.37230142    -0.28600
H968        H  0.93384180  0.58809283  0.37992382     0.15600
H969        H  0.54624722  0.65939995  0.40259712     0.16200
C970        C  0.88755413  0.85950729  0.59919249    -0.13400
C971        C  0.86693573  0.87269126  0.63343648    -0.28600
H972        H  0.88538414  0.82327734  0.59910783     0.15600
H973        H  0.87201684  0.91028321  0.63234451     0.16200
C974        C  0.89625930  0.87977254  0.38704089    -0.13400
C975        C  0.85381879  0.87634592  0.37300733    -0.28600
H976        H  0.91184372  0.85931418  0.37005576     0.15600
H977        H  0.83886342  0.89629565  0.39199332     0.16200
C978        C  0.53439852  0.72735191  0.66239310    -0.13400
C979        C  0.58137436  0.73736269  0.66018762    -0.28600
H980        H  0.58285188  0.73192717  0.36522100     0.15600
H981        H  0.58854275  0.70589650  0.66275664     0.16200
C982        C  0.67325934  0.92610062  0.64824252    -0.13400
C983        C  0.65690712  0.94260024  0.68309668    -0.28600
H984        H  0.69356033  0.95148097  0.61974440     0.15600
H985        H  0.64160568  0.92989110  0.35856656     0.16200
C986        C  0.74176820  0.81939615  0.30272026    -0.13400
C987        C  0.77546176  0.84244092  0.33448037    -0.28600
H988        H  0.76412250  0.80451837  0.61227352     0.15600
H989        H  0.76773254  0.86370088  0.35950338     0.16200
C990        C  0.73079878  0.57669086  0.66434960    -0.13400
C991        C  0.76800285  0.58626013  0.69293871    -0.28600
H992        H  0.73506774  0.60585596  0.63935204     0.15600
H993        H  0.70109983  0.60440773  0.34140555     0.16200
C994        C  0.81897670  0.79277770  0.34092601    -0.13400
C995        C  0.83728504  0.77087086  0.31316277    -0.28600
H996        H  0.80004408  0.77301749  0.37265566     0.15600
H997        H  0.89995240  0.80362044  0.67911904     0.16200
C998        C  0.94702688  0.67571159  0.66223271    -0.13400
C999        C  0.96961484  0.65862092  0.69151538    -0.28600
H1000       H  0.96601915  0.69637934  0.63089021     0.15600
H1001       H  0.94923373  0.69747516  0.36527038     0.16200
C1002       C  0.85781246  0.72350517  0.67941556     0.06100
C1003       C  0.81389463  0.67963545  0.68659567    -0.10000
C1004       C  0.77018734  0.60886934  0.99941508     0.03600
C1005       C  0.81107007  0.60057495  0.99969726    -0.08500
C1006       C  0.85760041  0.63931511  0.98873241     0.06100
C1007       C  0.90047712  0.72026213  0.67230016    -0.08000
H1008       H  0.78018386  0.68100222  0.69154931     0.11700
H1009       H  0.80724178  0.56451068  0.00916328     0.09200
H1010       H  0.93424734  0.75347625  0.66531556     0.09100
C1011       C  0.71244026  0.82773260  0.64133144     0.06100
C1012       C  0.66880641  0.78471848  0.64583167    -0.10000
C1013       C  0.63326082  0.77717941  0.99447042     0.03600
C1014       C  0.62496618  0.81708585  0.98075415    -0.08500
C1015       C  0.66329328  0.86443455  0.97529012     0.06100
C1016       C  0.71287532  0.87339161  0.64230269    -0.08000
H1017       H  0.66940044  0.74968824  0.64509451     0.11700
H1018       H  0.58881927  0.81219046  0.97480006     0.09200
H1019       H  0.74699453  0.90681691  0.63845291     0.09100
C1020       C  0.83747545  0.84093980  0.67528671     0.00500
C1021       C  0.99074104  0.65460168  0.99087334     0.00500
C1022       C  0.66091791  0.98669292  0.00060446     0.00500
Fe1023     Fe  0.93432799  0.98878857  0.83521992     1.65800
Fe1024     Fe  0.47783163  0.92935498  0.84429690     1.73200
Fe1025     Fe  0.56195295  0.57905429  0.83572123     1.54400
O1026       O  0.52613499  0.60231295  0.78800181    -0.78700
O1027       O  0.52414016  0.93960165  0.89800839    -0.77000
O1028       O  0.97726047  0.53304262  0.78638379    -0.81200
O1029       O  0.97880156  0.54405401  0.88848995    -0.76000
O1030       O  0.59976342  0.57308041  0.77995112    -0.77800
O1031       O  0.97418215  0.90992048  0.88109990    -0.80600
C1032       C  0.48786818  0.57693214  0.90815933     1.00200
C1033       C  0.01660441  0.56868563  0.77208015     1.07600
O1034       O  0.00381202  0.00592115  0.83137118    -1.09500
O1035       O  0.97583658  0.91803748  0.77695799    -0.72000
O1036       O  0.91536453  0.93690911  0.78510643    -0.75500
O1037       O  0.53058304  0.59470402  0.89157254    -0.76100
C1038       C  0.93521262  0.91441252  0.76527587     0.99100
O1039       O  0.91874446  0.93596082  0.88751897    -0.74100
O1040       O  0.53084818  0.94189435  0.79531642    -0.79300
C1041       C  0.56418426  0.97515982  0.90874441     1.01700
C1042       C  0.60619868  0.53861517  0.76413345     1.07700
O1043       O  0.60388064  0.56319342  0.88301381    -0.74900
C1044       C  0.93679566  0.90817272  0.90043204     1.06000
C1045       C  0.63592308  0.00113559  0.72414621    -0.13400
C1046       C  0.58952517  0.97011563  0.73558156    -0.28600
H1047       H  0.65558159  0.03228073  0.74591131     0.15600
H1048       H  0.64878704  0.58436853  0.70357243     0.15500
C1049       C  0.63638442  0.99428616  0.95703166    -0.13400
C1050       C  0.58943314  0.96566123  0.94826879    -0.28600
H1051       H  0.58268732  0.46074402  0.96955087     0.15600
H1052       H  0.56855078  0.93376894  0.97115984     0.16200
C1053       C  0.98692000  0.61967775  0.95227574    -0.13400
C1054       C  0.02073780  0.60485016  0.94492414    -0.28600
H1055       H  0.53349192  0.66836842  0.93573793     0.15600
H1056       H  0.05246452  0.61871911  0.96649497     0.16200
C1057       C  0.01199271  0.59475020  0.73006743    -0.13400
C1058       C  0.03671669  0.64338736  0.72064909    -0.28600
H1059       H  0.98152998  0.57314880  0.70829156     0.15600
H1060       H  0.53665890  0.67301282  0.73216774     0.16200
C1061       C  0.91424300  0.87330223  0.94059929    -0.13400
C1062       C  0.86788878  0.85826672  0.95396536    -0.28600
H1063       H  0.93626743  0.86050476  0.96016648     0.15600
H1064       H  0.84592957  0.86939203  0.93227061     0.16200
C1065       C  0.91103977  0.88407551  0.72565781    -0.13400
C1066       C  0.86307078  0.86568126  0.71943192    -0.28600
H1067       H  0.93384856  0.87964167  0.69989959     0.15600
H1068       H  0.84221115  0.87173515  0.74633178     0.16200
C1069       C  0.54559240  0.71728173  0.00898151    -0.13400
C1070       C  0.59206774  0.72646815  0.00145971    -0.28600
H1071       H  0.52465989  0.75700285  0.65978972     0.15600
H1072       H  0.59977089  0.69566518  0.99792195     0.16200
C1073       C  0.65332514  0.90663199  0.96805867    -0.13400
C1074       C  0.66612755  0.93977927  0.00115687    -0.28600
H1075       H  0.63432736  0.90889606  0.93736800     0.15600
H1076       H  0.63881224  0.91758473  0.71255189     0.16200
C1077       C  0.75795685  0.82446531  0.63965293    -0.13400
C1078       C  0.78949465  0.84249255  0.67414293    -0.28600
H1079       H  0.79899335  0.88349251  0.98713391     0.15600
H1080       H  0.78016746  0.85992500  0.70185373     0.16200
C1081       C  0.70395384  0.52164303  0.00738714    -0.13400
C1082       C  0.72005620  0.57031162  0.01103412    -0.28600
H1083       H  0.73000129  0.50855485  0.99990057     0.15600
H1084       H  0.76672312  0.55731368  0.71655430     0.16200
C1085       C  0.82748126  0.78694300  0.67632247    -0.13400
C1086       C  0.86319034  0.77426049  0.67917912    -0.28600
H1087       H  0.79031119  0.75815764  0.67519283     0.15600
H1088       H  0.80291189  0.74888994  0.94221790     0.16200
C1089       C  0.89975118  0.62869708  0.98801050    -0.13400
C1090       C  0.94620917  0.66365503  0.99185116    -0.28600
H1091       H  0.89192045  0.59077808  0.98389598     0.15600
H1092       H  0.95151222  0.64019353  0.72399767     0.16200
loop_ 
_geom_bond_atom_site_label_1 
_geom_bond_atom_site_label_2 
_geom_bond_distance 
_geom_bond_site_symmetry_2 
_ccdc_geom_bond_type 
C1            C2   1.399       .  A
C1            C6   1.401   1_556  A
C1           C85   1.474       .  S
C2          C185   1.398       .  A
C2            H7   1.085       .  S
C3            C4   1.406       .  A
C3           C93   1.400       .  A
C3           C81   1.478       .  S
C4            C5   1.410       .  A
C4            H8   1.084       .  S
C5           C97   1.402       .  A
C5           C88   1.483       .  S
C6          C187   1.410       .  A
C6            H9   1.078       .  S
C10          C11   1.397       .  A
C10          C15   1.397       .  A
C10          C76   1.470       .  S
C11         C194   1.404       .  A
C11          H16   1.085       .  S
C12          C13   1.414       .  A
C12         C102   1.397       .  A
C12          C69   1.490       .  S
C13          C14   1.410       .  A
C13          H17   1.081       .  S
C14         C106   1.405       .  A
C14          C72   1.493       .  S
C15         C196   1.394       .  A
C15          H18   1.085       .  S
C19          C65   1.528       .  S
C19          C77   1.530       .  S
C19          C84   1.526       .  S
C19         C243   1.515   1_554  S
C20          C52   1.530       .  S
C20          C89   1.531       .  S
C20         C148   1.528       .  S
C20         C614   1.544       .  S
C21          C48   1.526       .  S
C21          C73   1.526       .  S
C21         C135   1.533       .  S
C21         C353   1.528       .  S
Fe22         O38   2.043       .  S
Fe22         O35   2.078       .  S
Fe22        O301   2.066       .  S
Fe22        O300   2.065       .  S
Fe22         O33   1.970       .  S
Fe23         O26   2.033   1_655  S
Fe23         O39   2.109   1_655  S
Fe23        O576   2.105       .  S
Fe23        O580   2.018       .  S
Fe23        O579   1.953       .  S
Fe24         O42   2.097       .  S
Fe24         O29   2.073       .  S
Fe24         O36   2.079       .  S
Fe24         O25   2.087       .  S
Fe24        O852   1.967   1_455  S
O25         C578   1.276   1_455  A
O26          C40   1.265       .  A
O27        Fe295   2.049   1_545  S
O27          C32   1.268       .  A
O28        Fe295   2.078   1_545  S
O28         C577   1.270       .  A
O29          C41   1.270       .  A
O30        Fe569   2.060       .  S
O30          C43   1.265       .  A
C31         C599   1.470       .  S
C31          O36   1.271   1_655  A
C31         O574   1.265       .  A
C32          C56   1.472       .  S
C32         O571   1.276       .  A
O33        Fe569   1.974       .  S
O33        Fe843   1.977       .  S
O34        Fe569   2.051       .  S
O34          C37   1.266       .  A
O35          C37   1.270       .  A
C37          C64   1.465       .  S
O38          C43   1.267       .  A
O39         C314   1.274       .  A
C40          C49   1.463       .  S
C40         O315   1.281       .  A
C41         C318   1.476       .  S
C41         O312   1.270   1_545  A
O42         C313   1.276   1_545  A
C43          C60   1.465       .  S
C44         C203   1.538       .  S
C44          C45   1.345       .  D
C44          H46   1.088       .  S
C45         C314   1.483       .  S
C45         H320   1.086       .  S
H47         C318   1.085       .  S
C48          C49   1.340       .  D
C48         H323   1.089       .  S
C49          H51   1.085       .  S
H50         C321   1.088       .  S
C52          C53   1.351       .  D
C52         H600   1.087       .  S
C53         C577   1.476       .  S
C53          H55   1.086       .  S
H54         C598   1.088       .  S
C56          C57   1.346       .  D
C56          H58   1.083       .  S
C57         C202   1.535       .  S
C57         H605   1.086       .  S
H59         C603   1.087       .  S
C60          C61   1.344       .  D
C60          H62   1.084       .  S
C61         C110   1.526       .  S
C61          H63   1.086       .  S
C64          C65   1.340       .  D
C64          H66   1.086       .  S
C65          H67   1.089       .  S
C68         C566   1.528       .  S
C68          C69   1.342       .  D
C68         H161   1.085       .  S
C69          H71   1.088       .  S
H70         C250   1.082       .  S
C72          C73   1.356       .  D
C72          H74   1.087       .  S
C73         H166   1.083       .  S
H75         C255   1.088       .  S
C76          C77   1.345   1_556  D
C76         H260   1.078       .  S
C77          H79   1.087       .  S
H78         C167   1.087       .  S
C80         C294   1.533       .  S
C80          C81   1.351       .  D
C80          H82   1.088       .  S
C81         H174   1.086       .  S
H83         C263   1.082       .  S
C84          C85   1.346   1_554  D
C84          H86   1.088       .  S
C85         H269   1.081       .  S
H87         C176   1.087       .  S
C88          C89   1.343       .  D
C88          H90   1.086       .  S
C89         H182   1.090       .  S
H91         C271   1.081       .  S
C92          C93   1.397       .  A
C92          C97   1.404       .  A
C92         C176   1.469       .  S
C93          H98   1.085       .  S
C94         C184   1.404       .  A
C94          C95   1.413       .  A
C94         C172   1.489       .  S
C95          C96   1.409       .  A
C95          H99   1.084       .  S
C96         C188   1.401       .  A
C96         C179   1.487       .  S
C97         H100   1.084       .  S
C101        C102   1.403       .  A
C101        C106   1.400       .  A
C101        C167   1.482       .  S
C102        H107   1.079       .  S
C103        C193   1.400       .  A
C103        C104   1.410       .  A
C103        C160   1.487       .  S
C104        C105   1.407       .  A
C104        H108   1.079       .  S
C105        C197   1.411       .  A
C105        C163   1.493       .  S
C106        H109   1.080       .  S
C110        C156   1.516       .  S
C110        C168   1.519       .  S
C110        C175   1.528       .  S
C111        C143   1.544       .  S
C111        C239   1.540       .  S
C111        C705   1.543       .  S
C111        C180   1.540       .  S
C112        C226   1.545       .  S
C112        C139   1.533       .  S
C112        C164   1.533       .  S
C112        C444   1.534       .  S
Fe113       O129   2.036       .  S
Fe113       O392   2.083       .  S
Fe113       O126   2.087       .  S
Fe113       O391   2.050       .  S
Fe113       O124   1.962       .  S
Fe114       O117   2.073       .  S
Fe114       O667   2.075   1_455  S
Fe114       O671   2.071   1_455  S
Fe114       O130   2.084       .  S
Fe114       O670   1.980       .  S
Fe115       O133   2.097       .  S
Fe115       O120   2.051       .  S
Fe115       O127   2.061       .  S
Fe115       O116   2.077       .  S
Fe115       O943   1.979   1_445  S
O116        C669   1.272   1_455  A
O117        C131   1.271       .  A
O118       Fe386   2.070       .  S
O118        C123   1.278       .  A
O119       Fe386   2.093       .  S
O119        C668   1.270       .  A
O120        C132   1.263       .  A
O121       Fe660   2.090       .  S
O121        C134   1.271       .  A
C122        C690   1.477       .  S
C122        O665   1.268       .  A
C122        O127   1.268   1_655  A
C123        C147   1.476       .  S
C123        O662   1.274       .  A
O124       Fe660   1.966       .  S
O124       Fe934   1.964       .  S
O125       Fe660   2.031       .  S
O125        C128   1.261       .  A
O126        C128   1.274       .  A
C128        C155   1.464       .  S
O129        C134   1.266       .  A
O130        C405   1.273       .  A
C131        C140   1.482       .  S
C131        O406   1.269       .  A
C132        C409   1.485       .  S
C132        O403   1.274   1_545  A
O133        C404   1.276   1_545  A
C134        C151   1.475       .  S
C135        C136   1.343       .  D
C135        H137   1.087       .  S
C136        C405   1.477       .  S
C136        H411   1.087       .  S
H138        C409   1.087       .  S
C139        C140   1.349       .  D
C139        H414   1.087       .  S
C140        H142   1.087       .  S
H141        C412   1.088       .  S
C143        C144   1.355       .  D
C143        H691   1.088       .  S
C144        C668   1.482       .  S
C144        H146   1.082       .  S
H145        C689   1.088   1_455  S
C147        C148   1.344       .  D
C147        H149   1.084       .  S
C148        H696   1.088       .  S
H150        C694   1.087       .  S
C151        C152   1.347       .  D
C151        H153   1.083       .  S
C152        C201   1.522       .  S
C152        H154   1.089       .  S
C155        C156   1.340       .  D
C155        H157   1.087       .  S
C156        H158   1.088       .  S
C159        C657   1.528   1_455  S
C159        C160   1.349       .  D
C159        H252   1.084       .  S
C160        H162   1.088       .  S
C163        C164   1.350       .  D
C163        H165   1.087       .  S
C164        H257   1.083       .  S
C167        C168   1.348       .  D
C168        H170   1.081       .  S
H169        C258   1.087       .  S
C171        C385   1.540       .  S
C171        C172   1.347       .  D
C171        H173   1.089       .  S
C172        H265   1.084       .  S
C175        C176   1.344       .  D
C175        H177   1.088       .  S
H178        C267   1.081       .  S
C179        C180   1.353       .  D
C179        H181   1.081       .  S
C180        H273   1.089       .  S
C183        C184   1.410       .  A
C183        C188   1.401       .  A
C183        C267   1.488       .  S
C184        H189   1.081       .  S
C185        C186   1.403   1_556  A
C185        C263   1.474       .  S
C186        C187   1.408       .  A
C186        H190   1.084       .  S
C187        C270   1.492       .  S
C188        H191   1.085       .  S
C192        C193   1.395       .  A
C192        C197   1.404       .  A
C192        C258   1.474       .  S
C193        H198   1.085       .  S
C194        C195   1.416       .  A
C194        C251   1.492       .  S
C195        C196   1.411       .  A
C195        H199   1.080       .  S
C196        C254   1.475       .  S
C197        H200   1.080       .  S
C201        C247   1.523       .  S
C201        C259   1.526       .  S
C201        C266   1.534       .  S
C202        C234   1.529   1_554  S
C202        C796   1.533   1_554  S
C202        C271   1.533       .  S
C203        C230   1.539   1_554  S
C203        C255   1.528       .  S
C203        C535   1.530       .  S
Fe204       O220   2.030       .  S
Fe204       O483   2.062       .  S
Fe204       O217   2.051       .  S
Fe204       O482   2.048       .  S
Fe204       O215   1.972       .  S
Fe205       O208   2.022       .  S
Fe205       O758   2.069   1_455  S
Fe205       O762   2.031   1_455  S
Fe205       O221   2.076       .  S
Fe205       O761   1.955       .  S
Fe206       O224   2.073       .  S
Fe206       O211   2.073       .  S
Fe206       O218   2.067       .  S
Fe206       O207   2.060       .  S
Fe206      O1034   1.982       .  S
O207        C760   1.271   1_455  A
O208        C222   1.265       .  A
O209       Fe477   2.032       .  S
O209        C214   1.264       .  A
O210       Fe477   2.075       .  S
O210        C759   1.270       .  A
O211        C223   1.267       .  A
O212       Fe751   2.078       .  S
O212        C225   1.268       .  A
C213        C781   1.482       .  S
C213        O756   1.268       .  A
C213        O218   1.267   1_655  A
C214        C238   1.479       .  S
C214        O753   1.281       .  A
O215       Fe751   1.978       .  S
O215      Fe1025   1.983       .  S
O216       Fe751   2.061       .  S
O216        C219   1.267       .  A
O217        C219   1.267       .  A
C219        C246   1.467       .  S
O220        C225   1.265       .  A
O221        C496   1.265       .  A
C222        C231   1.477       .  S
C222        O497   1.287       .  A
C223        C500   1.488       .  S
C223        O494   1.270   1_545  A
O224        C495   1.271       .  A
C225        C242   1.470       .  S
C226        C227   1.352       .  D
C226        H228   1.087       .  S
C227        C496   1.484       .  S
C227        H502   1.083       .  S
H229        C500   1.087       .  S
C230        C231   1.337       .  D
C230        H505   1.087       .  S
C231        H233   1.088       .  S
H232        C503   1.087       .  S
C234        C235   1.345       .  D
C234        H782   1.087       .  S
C235        C759   1.478       .  S
C235        H237   1.086       .  S
H236        C780   1.088   1_455  S
C238        C239   1.344       .  D
C238        H240   1.085       .  S
C239        H787   1.087       .  S
H241        C785   1.087   1_455  S
C242        C243   1.345       .  D
C242        H244   1.086       .  S
C243        H245   1.089       .  S
C246        C247   1.349       .  D
C246        H248   1.084       .  S
C247        H249   1.088       .  S
C250        C748   1.538   1_455  S
C250        C251   1.350       .  D
C251        H253   1.087       .  S
C254        C255   1.341   1_556  D
C254        H256   1.087       .  S
C258        C259   1.344       .  D
C259        H261   1.088       .  S
C262        C476   1.536   1_544  S
C262        C263   1.348   1_554  D
C262        H264   1.088       .  S
C266        C267   1.346       .  D
C266        H268   1.084       .  S
C270        C271   1.352       .  D
C270        H272   1.081       .  S
C274        C275   1.390   1_556  A
C274        C279   1.401       .  A
C274        C358   1.469       .  S
C275        C458   1.398       .  A
C275        H280   1.085       .  S
C276        C366   1.406       .  A
C276        C277   1.401       .  A
C276        C354   1.484       .  S
C277        C278   1.404       .  A
C277        H281   1.085       .  S
C278        C370   1.407       .  A
C278        C361   1.477       .  S
C279        C460   1.413   1_556  A
C279        H282   1.081       .  S
C283        C284   1.409       .  A
C283        C288   1.402       .  A
C283        C349   1.491   1_556  S
C284        C467   1.407       .  A
C284        H289   1.080       .  S
C285        C375   1.419       .  A
C285        C286   1.412       .  A
C285        C342   1.508       .  S
C286        C287   1.402       .  A
C286        H290   1.079       .  S
C287        C379   1.403       .  A
C287        C345   1.493       .  S
C288        C469   1.406       .  A
C288        H291   1.078       .  S
C292        C516   1.529   1_554  S
C292        C338   1.526       .  S
C292        C350   1.530       .  S
C292        C357   1.526       .  S
C293        C325   1.539       .  S
C293        C421   1.528       .  S
C293        C887   1.523       .  S
C293        C362   1.535       .  S
C294        C408   1.539   1_545  S
C294        C321   1.540       .  S
C294        C346   1.539   1_545  S
Fe295       O311   2.050       .  S
Fe295       O308   2.090       .  S
Fe295       O306   1.962       .  S
Fe296       O299   2.056   1_655  S
Fe296       O849   2.047       .  S
Fe296       O853   2.083       .  S
Fe296       O312   2.064   1_655  S
Fe296       O852   1.969   1_565  S
Fe297       O315   2.109       .  S
Fe297       O302   2.045       .  S
Fe297       O309   2.054       .  S
Fe297       O298   2.093       .  S
Fe297       O579   1.955   1_455  S
O298        C851   1.274   1_455  A
O299        C313   1.267       .  A
O300        C305   1.272       .  A
O301        C850   1.265       .  A
O302        C314   1.260       .  A
O303       Fe842   2.085       .  S
O303        C316   1.271       .  A
C304        C872   1.483       .  S
C304        O847   1.277       .  A
C304        O309   1.268   1_655  A
C305        C329   1.474       .  S
C305        O844   1.275       .  A
O306       Fe842   1.963       .  S
O306       Fe570   1.978   1_565  S
O307       Fe842   2.024       .  S
O307        C310   1.260       .  A
O308        C310   1.272       .  A
C310        C337   1.463       .  S
O311        C316   1.268       .  A
C313        C322   1.482       .  S
C316        C333   1.479       .  S
C317        C476   1.529   1_554  S
C317        C318   1.348   1_565  D
C317        H319   1.088       .  S
C321        C322   1.343   1_545  D
C322        H324   1.080       .  S
C325        C326   1.348       .  D
C325        H873   1.088       .  S
C326        C850   1.479       .  S
C326        H328   1.084       .  S
H327        C871   1.088   1_455  S
C329        C330   1.349       .  D
C329        H331   1.081       .  S
C330        C475   1.535       .  S
C330        H878   1.088       .  S
H332        C876   1.086   1_455  S
C333        C334   1.351       .  D
C333        H335   1.084       .  S
C334        C383   1.534       .  S
C334        H336   1.086       .  S
C337        C338   1.343       .  D
C337        H339   1.088       .  S
C338        H340   1.087       .  S
C341        C839   1.541   1_455  S
C341        C342   1.362       .  D
C341        H434   1.082       .  S
C342        H344   1.087       .  S
H343        C523   1.086       .  S
C345        C346   1.354       .  D
C345        H347   1.084       .  S
C346        H439   1.082       .  S
H348        C528   1.082       .  S
C349        C350   1.347       .  D
C349        H533   1.081       .  S
C350        H352   1.084       .  S
H351        C440   1.087       .  S
C353        C354   1.345       .  D
C353        H355   1.089       .  S
C354        H447   1.086       .  S
H356        C536   1.085       .  S
C357        C358   1.341   1_554  D
C357        H359   1.089       .  S
C358        H542   1.086       .  S
H360        C449   1.086       .  S
C361        C362   1.345       .  D
C361        H363   1.082       .  S
C362        H455   1.088       .  S
H364        C544   1.083       .  S
C365        C366   1.404       .  A
C365        C370   1.408       .  A
C365        C449   1.480       .  S
C366        H371   1.084       .  S
C367        C457   1.399       .  A
C367        C368   1.411       .  A
C367        C445   1.478       .  S
C368        C369   1.413       .  A
C368        H372   1.084       .  S
C369        C461   1.399       .  A
C369        C452   1.484       .  S
C370        H373   1.084       .  S
C374        C375   1.418       .  A
C374        C379   1.402       .  A
C374        C440   1.500       .  S
C375        H380   1.081       .  S
C376        C466   1.401       .  A
C376        C377   1.420       .  A
C376        C433   1.495       .  S
C377        C378   1.418       .  A
C377        H381   1.081       .  S
C378        C470   1.408       .  A
C378        C436   1.502       .  S
C379        H382   1.080       .  S
C383        C429   1.539       .  S
C383        C441   1.543       .  S
C383        C448   1.538       .  S
C384        C416   1.538       .  S
C384        C512   1.533       .  S
C384        C978   1.541       .  S
C384        C453   1.531       .  S
C385        C499   1.540       .  S
C385        C412   1.530       .  S
C385        C437   1.539   1_545  S
Fe386       O402   2.053   1_545  S
Fe386       O399   2.115   1_545  S
Fe386       O397   1.965       .  S
Fe387       O390   2.045       .  S
Fe387       O940   2.095   1_455  S
Fe387       O944   2.045   1_455  S
Fe387       O403   2.096       .  S
Fe387       O943   1.978   1_455  S
Fe388       O406   2.070       .  S
Fe388       O393   2.052       .  S
Fe388       O400   2.052       .  S
Fe388       O389   2.073       .  S
Fe388       O670   1.983       .  S
O389        C942   1.271   1_455  A
O390        C404   1.265       .  A
O391        C396   1.267       .  A
O392        C941   1.270       .  A
O393        C405   1.264       .  A
O394       Fe933   2.071       .  S
O394        C407   1.270       .  A
C395        C963   1.480       .  S
C395        O938   1.270       .  A
C395        O400   1.265   1_655  A
C396        C420   1.474       .  S
C396        O935   1.275       .  A
O397       Fe933   1.965   1_545  S
O397       Fe661   1.982       .  S
O398       Fe933   2.047       .  S
O398        C401   1.263       .  A
O399        C401   1.274       .  A
C401        C428   1.485       .  S
O402        C407   1.270       .  A
C404        C413   1.475       .  S
C407        C424   1.469       .  S
C408        C409   1.344   1_565  D
C408        H410   1.086       .  S
C412        C413   1.341   1_545  D
C413        H415   1.083       .  S
C416        C417   1.348       .  D
C416        H964   1.088       .  S
C417        C941   1.482       .  S
C417        H419   1.084       .  S
H418        C962   1.086       .  S
C420        C421   1.345       .  D
C420        H422   1.085       .  S
C421        H969   1.087       .  S
H423        C967   1.087       .  S
C424        C425   1.346       .  D
C424        H426   1.083       .  S
C425        C474   1.526       .  S
C425        H427   1.088       .  S
C428        C429   1.353       .  D
C428        H430   1.087       .  S
C429        H431   1.087       .  S
C432        C930   1.536       .  S
C432        C433   1.346       .  D
C432        H525   1.085       .  S
C433        H435   1.087       .  S
C436        C437   1.361       .  D
C436        H438   1.084       .  S
C437        H530   1.082       .  S
C440        C441   1.349       .  D
C441        H443   1.085       .  S
H442        C531   1.083       .  S
C444        C445   1.345       .  D
C444        H446   1.088       .  S
C445        H538   1.084       .  S
C448        C449   1.348       .  D
C448        H450   1.088       .  S
H451        C540   1.086       .  S
C452        C453   1.343       .  D
C452        H454   1.086       .  S
C453        H546   1.088       .  S
C456        C457   1.395       .  A
C456        C461   1.402       .  A
C456        C540   1.469       .  S
C457        H462   1.085       .  S
C458        C459   1.415       .  A
C458        C536   1.489       .  S
C459        C460   1.416       .  A
C459        H463   1.081       .  S
C460        C543   1.499       .  S
C461        H464   1.084       .  S
C465        C466   1.394       .  A
C465        C470   1.392       .  A
C465        C531   1.470       .  S
C466        H471   1.085       .  S
C467        C468   1.414       .  A
C467        C524   1.495       .  S
C468        C469   1.407       .  A
C468        H472   1.082       .  S
C469        C527   1.499       .  S
C470        H473   1.079       .  S
C474        C520   1.517       .  S
C474        C532   1.526       .  S
C474        C539   1.520       .  S
C475        C507   1.531   1_554  S
C475       C1069   1.537       .  S
C475        C544   1.550       .  S
C476        C503   1.529       .  S
C476        C528   1.530   1_556  S
Fe477       O493   2.043   1_545  S
Fe477       O490   2.085   1_545  S
Fe477       O488   1.972   1_545  S
Fe478       O481   2.048       .  S
Fe478      O1031   2.084   1_455  S
Fe478      O1035   2.060   1_455  S
Fe478       O494   2.079       .  S
Fe478      O1034   1.982   1_565  S
Fe479       O497   2.133       .  S
Fe479       O484   2.076       .  S
Fe479       O491   2.058       .  S
Fe479       O480   2.121       .  S
Fe479       O761   1.952       .  S
O480       C1033   1.281       .  A
O481        C495   1.268   1_565  A
O482        C487   1.265       .  A
O483       C1032   1.265       .  A
O484        C496   1.266       .  A
O485      Fe1024   2.068       .  S
O485        C498   1.268       .  A
C486       C1054   1.488       .  S
C486       O1029   1.275   1_455  A
C486        O491   1.266       .  A
C487        C511   1.474       .  S
C487       O1026   1.273       .  A
O488      Fe1024   1.966       .  S
O488       Fe752   1.976   1_565  S
O489      Fe1024   2.037       .  S
O489        C492   1.266       .  A
O490        C492   1.270       .  A
C492        C519   1.473       .  S
O493        C498   1.263       .  A
C495        C504   1.471       .  S
C498        C515   1.466       .  S
C499        C500   1.349       .  D
C499        H501   1.086   1_545  S
C503        C504   1.348   1_565  D
C504        H506   1.084       .  S
C507        C508   1.344       .  D
C507       H1055   1.088       .  S
C508       C1032   1.475       .  S
C508        H510   1.083       .  S
H509       C1053   1.086       .  S
C511        C512   1.344       .  D
C511        H513   1.084       .  S
C512       H1060   1.087       .  S
H514       C1058   1.087       .  S
C515        C516   1.347       .  D
C515        H517   1.083       .  S
C516        H518   1.087       .  S
C519        C520   1.348       .  D
C519        H521   1.085       .  S
C520        H522   1.089       .  S
C523       C1021   1.540   1_455  S
C523        C524   1.352       .  D
C524        H526   1.085   1_556  S
C527        C528   1.355   1_556  D
C527        H529   1.087       .  S
C531        C532   1.345       .  D
C532        H534   1.088       .  S
C535        C536   1.345       .  D
C535        H537   1.084       .  S
C539        C540   1.342       .  D
C539        H541   1.090       .  S
C543        C544   1.356       .  D
C543        H545   1.081       .  S
C547        C548   1.386       .  A
C547        C552   1.405       .  A
C547        C631   1.466       .  S
C548        C731   1.393       .  A
C548        H553   1.086       .  S
C549        C639   1.407       .  A
C549        C550   1.413       .  A
C549        C627   1.492       .  S
C550        C551   1.403       .  A
C550        H554   1.081       .  S
C551        C643   1.395       .  A
C551        C634   1.466       .  S
C552        C733   1.416       .  A
C552        H555   1.079       .  S
C556        C557   1.403       .  A
C556        C561   1.396       .  A
C556        C622   1.471       .  S
C557        C740   1.403       .  A
C557        H562   1.084       .  S
C558        C648   1.417       .  A
C558        C559   1.414       .  A
C558        C615   1.509       .  S
C559        C560   1.404       .  A
C559        H563   1.079       .  S
C560        C652   1.400       .  A
C560        C618   1.484       .  S
C561        C742   1.395       .  A
C561        H564   1.085       .  S
C565        C789   1.532   1_554  S
C565        C611   1.516       .  S
C565        C623   1.522   1_554  S
C565        C630   1.524       .  S
C566        C598   1.531       .  S
C566        C694   1.528       .  S
C566        C635   1.521   1_455  S
C567        C681   1.535       .  S
C567        C594   1.531       .  S
C567        C619   1.531       .  S
C567        C899   1.533       .  S
Fe568       O584   2.041       .  S
Fe568       O847   2.103       .  S
Fe568       O581   2.107       .  S
Fe568       O846   2.042       .  S
Fe568       O579   1.945       .  S
Fe569       O572   2.040       .  S
Fe569       O585   2.062       .  S
Fe570       O588   2.110       .  S
Fe570       O575   2.059       .  S
Fe570       O582   2.060       .  S
Fe570       O571   2.093       .  S
O572        C586   1.265       .  A
O573       Fe841   2.067   1_545  S
O573        C578   1.267       .  A
O574       Fe841   2.049   1_545  S
O575        C587   1.265       .  A
O576        C589   1.272       .  A
C577        O582   1.267       .  A
C578        C602   1.482       .  S
O580        C583   1.264       .  A
O581        C583   1.281       .  A
C583        C610   1.462       .  S
O584        C589   1.261       .  A
O585        C860   1.266       .  A
C586        C595   1.474       .  S
C586        O861   1.278       .  A
C587        C864   1.480       .  S
C587        O858   1.270   1_545  A
O588        C859   1.278   1_545  A
C589        C606   1.475       .  S
C590        C749   1.532       .  S
C590        C591   1.347       .  D
C590        H592   1.088       .  S
C591        C860   1.476       .  S
C591        H866   1.083       .  S
H593        C864   1.081       .  S
C594        C595   1.340       .  D
C594        H869   1.087       .  S
C595        H597   1.086       .  S
H596        C867   1.087       .  S
C598        C599   1.345   1_455  D
C599        H601   1.083       .  S
C602        C603   1.344   1_655  D
C602        H604   1.084       .  S
C603        C748   1.536   1_454  S
C606        C607   1.343       .  D
C606        H608   1.085       .  S
C607        C656   1.537       .  S
C607        H609   1.090       .  S
C610        C611   1.338       .  D
C610        H612   1.088       .  S
C611        H613   1.088       .  S
C614        C615   1.359       .  D
C614        H707   1.082       .  S
C615        H617   1.087       .  S
H616        C796   1.087       .  S
C618        C619   1.353       .  D
C618        H620   1.085       .  S
C619        H712   1.088       .  S
H621        C801   1.088       .  S
C622        C623   1.345       .  D
C622        H806   1.084       .  S
C623        H625   1.088   1_556  S
H624        C713   1.087       .  S
C626        C840   1.530       .  S
C626        C627   1.349       .  D
C626        H628   1.084       .  S
C627        H720   1.087       .  S
H629        C809   1.084       .  S
C630        C631   1.339   1_554  D
C630        H632   1.088       .  S
C631        H815   1.087       .  S
H633        C722   1.083       .  S
C634        C635   1.346       .  D
C634        H636   1.081       .  S
C635        H728   1.090       .  S
H637        C817   1.081       .  S
C638        C639   1.408       .  A
C638        C643   1.385       .  A
C638        C722   1.472       .  S
C639        H644   1.084       .  S
C640        C730   1.405       .  A
C640        C641   1.409       .  A
C640        C718   1.486       .  S
C641        C642   1.405       .  A
C641        H645   1.081       .  S
C642        C734   1.404       .  A
C642        C725   1.475       .  S
C643        H646   1.085       .  S
C647        C648   1.420       .  A
C647        C652   1.393       .  A
C647        C713   1.500       .  S
C648        H653   1.080       .  S
C649        C739   1.403       .  A
C649        C650   1.417       .  A
C649        C706   1.506       .  S
C650        C651   1.417       .  A
C650        H654   1.081       .  S
C651        C743   1.407       .  A
C651        C709   1.502       .  S
C652        H655   1.083       .  S
C656        C702   1.529       .  S
C656        C714   1.531       .  S
C656        C721   1.521       .  S
C657        C689   1.536       .  S
C657        C785   1.525       .  S
C657        C726   1.528       .  S
C658        C772   1.528       .  S
C658        C685   1.535       .  S
C658        C710   1.545       .  S
C658        C990   1.539       .  S
Fe659       O675   2.055       .  S
Fe659       O938   2.079       .  S
Fe659       O672   2.072       .  S
Fe659       O937   2.067       .  S
Fe659       O670   1.985   1_655  S
Fe660       O663   2.036       .  S
Fe660       O676   2.089       .  S
Fe661       O679   2.078       .  S
Fe661       O666   2.056       .  S
Fe661       O673   2.052       .  S
Fe661       O662   2.077       .  S
O663        C677   1.263       .  A
O664       Fe932   2.046   1_545  S
O664        C669   1.266       .  A
O665       Fe932   2.074   1_545  S
O666        C678   1.262       .  A
O667        C680   1.270       .  A
C668        O673   1.262       .  A
C669        C693   1.469       .  S
O671        C674   1.271       .  A
O672        C674   1.268       .  A
C674        C701   1.477       .  S
O675        C680   1.269       .  A
O676        C951   1.272       .  A
C677        C686   1.472       .  S
C677        O952   1.278       .  A
C678        C955   1.476       .  S
C678        O949   1.270   1_545  A
O679        C950   1.275   1_545  A
C680        C697   1.476       .  S
C681        C682   1.345       .  D
C681        H683   1.085       .  S
C682        C951   1.482       .  S
C682        H957   1.084       .  S
H684        C955   1.084       .  S
C685        C686   1.341       .  D
C685        H960   1.088       .  S
C686        H688   1.082       .  S
H687        C958   1.088       .  S
C689        C690   1.347       .  D
C690        H692   1.083       .  S
C693        C694   1.348   1_655  D
C693        H695   1.086       .  S
C697        C698   1.348       .  D
C697        H699   1.084       .  S
C698        C747   1.530       .  S
C698        H700   1.087       .  S
C701        C702   1.356       .  D
C701        H703   1.087       .  S
C702        H704   1.087       .  S
C705        C706   1.350       .  D
C705        H798   1.085       .  S
C706        H708   1.087       .  S
C709        C710   1.363       .  D
C709        H711   1.081       .  S
C710        H803   1.084       .  S
C713        C714   1.339       .  D
C714        H716   1.085       .  S
H715        C804   1.087       .  S
C717        C931   1.532   1_545  S
C717        C718   1.353       .  D
C717        H719   1.084       .  S
C718        H811   1.088       .  S
C721        C722   1.335       .  D
C721        H723   1.089       .  S
H724        C813   1.086       .  S
C725        C726   1.344       .  D
C725        H727   1.082       .  S
C726        H819   1.089       .  S
C729        C730   1.396       .  A
C729        C734   1.399       .  A
C729        C813   1.472       .  S
C730        H735   1.085       .  S
C731        C732   1.414       .  A
C731        C809   1.483       .  S
C732        C733   1.412       .  A
C732        H736   1.080   1_556  S
C733        C816   1.503       .  S
C734        H737   1.084       .  S
C738        C739   1.409       .  A
C738        C743   1.404       .  A
C738        C804   1.494       .  S
C739        H744   1.078       .  S
C740        C741   1.412       .  A
C740        C797   1.488   1_556  S
C741        C742   1.408       .  A
C741        H745   1.083       .  S
C742        C800   1.477       .  S
C743        H746   1.081       .  S
C747        C793   1.527       .  S
C747        C805   1.529       .  S
C747        C812   1.529       .  S
C748        C780   1.536       .  S
C748        C817   1.546       .  S
C749        C776   1.529   1_554  S
C749        C801   1.528       .  S
C749       C1081   1.538       .  S
Fe750       O766   2.046       .  S
Fe750      O1029   2.104       .  S
Fe750       O763   2.105       .  S
Fe750      O1028   2.026       .  S
Fe750       O761   1.952   1_655  S
Fe751       O754   2.043       .  S
Fe751       O767   2.076       .  S
Fe752       O770   2.109       .  S
Fe752       O757   2.058       .  S
Fe752       O764   2.058       .  S
Fe752       O753   2.122       .  S
O754        C768   1.267       .  A
O755      Fe1023   2.066   1_545  S
O755        C760   1.269       .  A
O756      Fe1023   2.075   1_545  S
O757        C769   1.266   1_545  A
O758        C771   1.266       .  A
C759        O764   1.265       .  A
C760        C784   1.474       .  S
O762        C765   1.266       .  A
O763        C765   1.279       .  A
C765        C792   1.468       .  S
O766        C771   1.265       .  A
O767       C1042   1.271       .  A
C768        C777   1.471       .  S
C768       O1043   1.273       .  A
C769       C1046   1.471       .  S
C769       O1040   1.265       .  A
O770       C1041   1.281   1_545  A
C771        C788   1.466       .  S
C772        C773   1.344       .  D
C772        H774   1.087       .  S
C773       C1042   1.478       .  S
C773       H1048   1.087       .  S
H775       C1046   1.084       .  S
C776        C777   1.351       .  D
C776       H1051   1.089       .  S
C777        H779   1.081       .  S
H778       C1049   1.087   1_545  S
C780        C781   1.351       .  D
C781        H783   1.082       .  S
C784        C785   1.345       .  D
C784        H786   1.085       .  S
C788        C789   1.346       .  D
C788        H790   1.083       .  S
C789        H791   1.088       .  S
C792        C793   1.343       .  D
C792        H794   1.083       .  S
C793        H795   1.088       .  S
C796        C797   1.348   1_556  D
C797        H799   1.085       .  S
C800        C801   1.344   1_556  D
C800        H802   1.087       .  S
C804        C805   1.351       .  D
C805        H807   1.082       .  S
C808       C1022   1.526   1_545  S
C808        C809   1.340   1_554  D
C808        H810   1.084       .  S
C812        C813   1.341       .  D
C812        H814   1.088       .  S
C816        C817   1.352       .  D
C816        H818   1.081       .  S
C820        C821   1.394       .  A
C820        C825   1.402       .  A
C820        C904   1.476       .  S
C821       C1004   1.400       .  A
C821        H826   1.085       .  S
C822        C912   1.403       .  A
C822        C823   1.417       .  A
C822        C900   1.492       .  S
C823        C824   1.407       .  A
C823        H827   1.080       .  S
C824        C916   1.401       .  A
C824        C907   1.483       .  S
C825       C1006   1.413       .  A
C825        H828   1.081       .  S
C829        C830   1.418       .  A
C829        C834   1.404       .  A
C829        C895   1.499       .  S
C830       C1013   1.417       .  A
C830        H835   1.081   1_556  S
C831        C921   1.405       .  A
C831        C832   1.405       .  A
C831        C888   1.479       .  S
C832        C833   1.410       .  A
C832        H836   1.084       .  S
C833        C925   1.396       .  A
C833        C891   1.477       .  S
C834       C1015   1.399       .  A
C834        H837   1.085       .  S
C838       C1062   1.531       .  S
C838        C884   1.535   1_556  S
C838        C896   1.546   1_556  S
C838        C903   1.531       .  S
C839        C871   1.540       .  S
C839        C967   1.530   1_655  S
C839        C908   1.542       .  S
C840        C954   1.526       .  S
C840        C867   1.530       .  S
C840        C892   1.527   1_545  S
Fe841       O857   2.064       .  S
Fe841       O854   2.063       .  S
Fe841       O852   1.972   1_565  S
Fe842       O845   2.012       .  S
Fe842       O858   2.074       .  S
Fe843       O861   2.102       .  S
Fe843       O848   2.062       .  S
Fe843       O855   2.069       .  S
Fe843       O844   2.082       .  S
O845        C859   1.259       .  A
O846        C851   1.263       .  A
O848        C860   1.263       .  A
O849        C862   1.262       .  A
C850        O855   1.268       .  A
C851        C875   1.477       .  S
O853        C856   1.274       .  A
O854        C856   1.268       .  A
C856        C883   1.482       .  S
O857        C862   1.268       .  A
C859        C868   1.462       .  S
C862        C879   1.471       .  S
C863       C1022   1.532       .  S
C863        C864   1.346   1_565  D
C863        H865   1.089       .  S
C867        C868   1.339   1_545  D
C868        H870   1.087       .  S
C871        C872   1.353       .  D
C872        H874   1.084       .  S
C875        C876   1.342       .  D
C875        H877   1.082       .  S
C876       C1021   1.535   1_554  S
C879        C880   1.341       .  D
C879        H881   1.083       .  S
C880        C929   1.532       .  S
C880        H882   1.089       .  S
C883        C884   1.346       .  D
C883        H885   1.082       .  S
C884        H886   1.087       .  S
C887        C888   1.346       .  D
C887        H980   1.088       .  S
C888        H890   1.086       .  S
H889       C1069   1.083       .  S
C891        C892   1.341       .  D
C891        H893   1.086       .  S
C892        H985   1.090       .  S
H894       C1074   1.091       .  S
C895        C896   1.351   1_556  D
C895       H1079   1.083       .  S
C896        H898   1.084       .  S
H897        C986   1.086       .  S
C899        C900   1.346       .  D
C899        H901   1.084       .  S
C900        H993   1.084       .  S
H902       C1082   1.081       .  S
C903        C904   1.342       .  D
C903        H905   1.088   1_556  S
C904       H1088   1.086       .  S
H906        C995   1.079       .  S
C907        C908   1.351       .  D
C907        H909   1.080       .  S
C908       H1001   1.089       .  S
H910       C1090   1.085       .  S
C911        C912   1.399       .  A
C911        C916   1.401       .  A
C911        C995   1.474       .  S
C912        H917   1.084       .  S
C913       C1003   1.418       .  A
C913        C914   1.408       .  A
C913        C991   1.491       .  S
C914        C915   1.403       .  A
C914        H918   1.084       .  S
C915       C1007   1.389       .  A
C915        C998   1.470       .  S
C916        H919   1.084       .  S
C920        C921   1.394       .  A
C920        C925   1.403       .  A
C920        C986   1.470       .  S
C921        H926   1.084       .  S
C922       C1012   1.405       .  A
C922        C923   1.417       .  A
C922        C979   1.491       .  S
C923        C924   1.418       .  A
C923        H927   1.082       .  S
C924       C1016   1.399       .  A
C924        C982   1.482       .  S
C925        H928   1.085       .  S
C929        C975   1.525       .  S
C929        C987   1.518       .  S
C929        C994   1.531       .  S
C930        C962   1.541       .  S
C930       C1058   1.532       .  S
C930        C999   1.532   1_455  S
C931       C1045   1.528   1_565  S
C931        C958   1.526   1_565  S
C931        C983   1.534       .  S
Fe932       O948   2.041       .  S
Fe932       O945   2.076       .  S
Fe932       O943   1.968       .  S
Fe933       O936   2.040       .  S
Fe933       O949   2.067       .  S
Fe934       O952   2.104       .  S
Fe934       O939   2.054       .  S
Fe934       O946   2.065       .  S
Fe934       O935   2.081       .  S
O936        C950   1.263       .  A
O937        C942   1.268       .  A
O939        C951   1.264       .  A
O940        C953   1.273       .  A
C941        O946   1.270       .  A
C942        C966   1.481       .  S
O944        C947   1.263       .  A
O945        C947   1.272       .  A
C947        C974   1.474       .  S
O948        C953   1.266       .  A
C950        C959   1.466       .  S
C953        C970   1.479       .  S
C954        C955   1.341       .  D
C954        H956   1.088   1_545  S
C958        C959   1.334   1_545  D
C959        H961   1.085       .  S
C962        C963   1.356   1_455  D
C963        H965   1.084       .  S
C966        C967   1.348   1_655  D
C966        H968   1.085       .  S
C970        C971   1.351       .  D
C970        H972   1.082       .  S
C971       C1020   1.529       .  S
C971        H973   1.089       .  S
C974        C975   1.343       .  D
C974        H976   1.085       .  S
C975        H977   1.087       .  S
C978        C979   1.352       .  D
C978       H1071   1.085       .  S
C979        H981   1.088       .  S
C982        C983   1.343       .  D
C982        H984   1.087       .  S
C983       H1076   1.087       .  S
C986        C987   1.342       .  D
C987        H989   1.089       .  S
H988       C1077   1.086       .  S
C990        C991   1.347       .  D
C990        H992   1.088       .  S
C991       H1084   1.086       .  S
C994        C995   1.347       .  D
C994        H996   1.088       .  S
H997       C1086   1.081       .  S
C998        C999   1.341       .  D
C998       H1000   1.087       .  S
C999       H1092   1.088       .  S
C1002      C1003   1.415       .  A
C1002      C1007   1.396       .  A
C1002      C1086   1.487       .  S
C1003      H1008   1.082       .  S
C1004      C1005   1.412       .  A
C1004      C1082   1.488   1_556  S
C1005      C1006   1.412       .  A
C1005      H1009   1.082   1_556  S
C1006      C1089   1.495       .  S
C1007      H1010   1.086       .  S
C1011      C1012   1.391       .  A
C1011      C1016   1.397       .  A
C1011      C1077   1.470       .  S
C1012      H1017   1.085       .  S
C1013      C1014   1.409       .  A
C1013      C1070   1.496   1_556  S
C1014      C1015   1.392       .  A
C1014      H1018   1.081       .  S
C1015      C1073   1.474       .  S
C1016      H1019   1.085       .  S
C1020      C1066   1.531       .  S
C1020      C1078   1.520       .  S
C1020      C1085   1.537       .  S
C1021      C1053   1.540       .  S
C1021      C1090   1.539       .  S
C1022      C1049   1.538   1_554  S
C1022      C1074   1.522       .  S
Fe1023     O1039   2.059       .  S
Fe1023     O1036   2.066       .  S
Fe1023     O1034   1.982   1_665  S
Fe1024     O1027   2.050       .  S
Fe1024     O1040   2.062       .  S
Fe1025     O1043   2.087       .  S
Fe1025     O1030   2.059       .  S
Fe1025     O1037   2.068       .  S
Fe1025     O1026   2.080       .  S
O1027      C1041   1.268       .  A
O1028      C1033   1.263   1_655  A
O1030      C1042   1.265       .  A
O1031      C1044   1.271       .  A
C1032      O1037   1.269       .  A
C1033      C1057   1.473       .  S
O1035      C1038   1.267       .  A
O1036      C1038   1.270       .  A
C1038      C1065   1.472       .  S
O1039      C1044   1.268       .  A
C1041      C1050   1.482       .  S
C1044      C1061   1.482       .  S
C1045      C1046   1.345   1_545  D
C1045      H1047   1.088       .  S
C1049      C1050   1.343       .  D
C1050      H1052   1.087       .  S
C1053      C1054   1.348   1_655  D
C1054      H1056   1.085       .  S
C1057      C1058   1.342       .  D
C1057      H1059   1.088   1_455  S
C1061      C1062   1.350       .  D
C1061      H1063   1.086       .  S
C1062      H1064   1.086       .  S
C1065      C1066   1.347       .  D
C1065      H1067   1.084       .  S
C1066      H1068   1.088       .  S
C1069      C1070   1.359       .  D
C1070      H1072   1.086   1_554  S
C1073      C1074   1.341   1_556  D
C1073      H1075   1.084       .  S
C1077      C1078   1.341       .  D
C1078      H1080   1.089       .  S
C1081      C1082   1.345       .  D
C1081      H1083   1.085   1_554  S
C1085      C1086   1.342       .  D
C1085      H1087   1.085       .  S
C1089      C1090   1.353       .  D
C1089      H1091   1.084       .  S
