geometry optimzed in LAMMPS
_audit_creation_date              2020-11-30 
_audit_creation_method            'lammps2cif' 
_symmetry_space_group_name_H-M    'P1' 
_symmetry_Int_Tables_number       1 
_symmetry_cell_setting            triclinic 
loop_ 
_symmetry_equiv_pos_as_xyz 
  x,y,z 
_cell_length_a                    49.81525959891194 
_cell_length_b                    49.72953928579659 
_cell_length_c                    40.14744233711883 
_cell_angle_alpha                 90.1405436862077 
_cell_angle_beta                  90.01356492880996 
_cell_angle_gamma                 120.07257385726871 
loop_ 
_atom_site_label 
_atom_site_type_symbol 
_atom_site_fract_x 
_atom_site_fract_y 
_atom_site_fract_z 
_atom_site_charge 
C1          C  0.42822251  0.07638995  0.88935047     0.03390
C2          C  0.44585588  0.10771292  0.89924017    -0.12760
C3          C  0.43215219  0.12123493  0.91839146     0.00890
C4          C  0.40046544  0.10410079  0.92548390    -0.11290
C5          C  0.38331815  0.07240476  0.91825848     0.03380
C6          C  0.39727941  0.05855624  0.90020080    -0.10710
H7          H  0.47028308  0.12094642  0.89335978     0.08970
H8          H  0.39014267  0.11449536  0.94088204     0.06500
H9          H  0.38462542  0.03377295  0.89553181     0.06350
C10         C  0.42500839  0.33394290  0.89024205     0.03390
C11         C  0.44182205  0.31860929  0.89615863    -0.12760
C12         C  0.43297629  0.29634309  0.92161199     0.00890
C13         C  0.40480353  0.28731945  0.93822370    -0.11290
C14         C  0.38648677  0.30041692  0.93073831     0.03380
C15         C  0.39679048  0.32396207  0.90674924    -0.10710
H16         H  0.46179220  0.32457917  0.88099687     0.08970
H17         H  0.39654876  0.26955854  0.95709782     0.06500
H18         H  0.38271370  0.33425927  0.90070067     0.06350
C19         C  0.34543983  0.41664516  0.10146976     0.03390
C20         C  0.33089588  0.43410270  0.09463483    -0.12760
C21         C  0.30435252  0.42183426  0.07439019     0.00890
C22         C  0.29088395  0.39090536  0.06326495    -0.11290
C23         C  0.30567477  0.37366684  0.06858760     0.03380
C24         C  0.33273171  0.38650609  0.08790247    -0.10710
H25         H  0.34140356  0.45782572  0.10323409     0.08970
H26         H  0.27050663  0.38137460  0.04744336     0.06500
H27         H  0.34454131  0.37339790  0.09133659     0.06350
C28         C  0.16159783  0.07181933  0.89310898     0.03390
C29         C  0.17100664  0.09996755  0.90984335    -0.12760
C30         C  0.19899022  0.11468901  0.92839303     0.00890
C31         C  0.21629679  0.09951263  0.93057950    -0.11290
C32         C  0.20598992  0.07008362  0.91632741     0.03380
C33         C  0.17936942  0.05732012  0.89613529    -0.10710
H34         H  0.15674840  0.11054047  0.90733448     0.08970
H35         H  0.23757718  0.11032630  0.94436114     0.06500
H36         H  0.17206211  0.03579277  0.88277639     0.06350
C37         C  0.09018197  0.41350592  0.10788132     0.03390
C38         C  0.07269848  0.38300172  0.09597049    -0.12760
C39         C  0.08349645  0.37211538  0.06955224     0.00890
C40         C  0.11290705  0.39270855  0.05601009    -0.11290
C41         C  0.13205209  0.42247580  0.06996519     0.03380
C42         C  0.12003558  0.43287491  0.09538240    -0.10710
H43         H  0.05015678  0.36803985  0.10694432     0.08970
H44         H  0.12090340  0.38602143  0.03425433     0.06500
H45         H  0.13373306  0.45615744  0.10537876     0.06350
C46         C  0.27229951  0.49974427  0.99622249     0.00820
C47         C  0.24436302  0.49914246  0.99479759     0.00820
C48         C  0.08910259  0.16029588  0.11383942     0.03390
C49         C  0.06947626  0.17063865  0.10093950    -0.12760
C50         C  0.07989863  0.19303824  0.07561782     0.00890
C51         C  0.11015022  0.20575882  0.06386853    -0.11290
C52         C  0.12983685  0.19522843  0.07525896     0.03380
C53         C  0.11943165  0.17323703  0.10109582    -0.10710
H54         H  0.04582102  0.16056836  0.10973588     0.08970
H55         H  0.11772021  0.22298047  0.04431186     0.06500
H56         H  0.13458207  0.16555317  0.11075289     0.06350
C57         C  0.99676227  0.22577620  0.00821811     0.00820
C58         C  0.99656834  0.25349123  0.00615568     0.00820
C59         C  0.26776942  0.26025885  0.99356669     0.00820
C60         C  0.23835999  0.23497278  0.99005628     0.00820
O61         O  0.00601810  0.45166865  0.70318261    -0.85090
O62         O  0.06194880  0.50412080  0.71980158    -0.82140
C63         C  0.06447403  0.02566819  0.70105449     0.98370
O64         O  0.04691662  0.03676995  0.70530042    -0.82170
O65         O  0.99414691  0.03783822  0.72002879    -0.84820
C66         C  0.47389912  0.01884151  0.69987432     1.02900
O67         O  0.46142221  0.48994268  0.70470972    -0.77580
O68         O  0.45940608  0.43538003  0.72204115    -0.77770
C69         C  0.47704264  0.43340654  0.70099169     1.02850
O70         O  0.99457686  0.43564896  0.77256256    -0.85090
O71         O  0.04724009  0.49097306  0.78930697    -0.82150
C72         C  0.06408009  0.01993109  0.79373500     0.98390
O73         O  0.06117759  0.03892091  0.77529768    -0.82180
O74         O  0.00563473  0.03573858  0.79026602    -0.84790
C75         C  0.47670273  0.02452655  0.79269764     1.02860
O76         O  0.45871953  0.50292306  0.77343224    -0.77610
O77         O  0.46306638  0.45118583  0.79067838    -0.77750
C78         C  0.47357714  0.43276176  0.79237319     1.02820
Cr79       Cr  0.02582921  0.47228540  0.74628099     1.93740
Cr80       Cr  0.02535043  0.03395518  0.74780043     1.93210
Cr81       Cr  0.46402766  0.47165522  0.74777236     1.39100
O82         O  0.00515654  0.49273102  0.74738826    -1.22840
C83         C  0.43181408  0.07389216  0.60002518     0.03390
C84         C  0.40147267  0.05589401  0.58794283    -0.12760
C85         C  0.38548289  0.06989704  0.57374882     0.00890
C86         C  0.40277881  0.10229917  0.56825842    -0.11290
C87         C  0.43495520  0.11881250  0.57294029     0.03380
C88         C  0.44925917  0.10495076  0.59018733    -0.10710
H89         H  0.39056539  0.03115208  0.59076628     0.08970
H90         H  0.39218148  0.11500433  0.55859276     0.06500
H91         H  0.47384365  0.11818499  0.59574143     0.06350
C92         C  0.34036010  0.41205807  0.38098634     0.03390
C93         C  0.33046180  0.43134494  0.39591276    -0.12760
C94         C  0.31137744  0.42158486  0.42458920     0.00890
C95         C  0.30262522  0.39195769  0.43737152    -0.11290
C96         C  0.30829050  0.37089227  0.41989343     0.03380
C97         C  0.32778268  0.38138614  0.39204773    -0.10710
H98         H  0.33857647  0.45401530  0.38573034     0.08970
H99         H  0.29051387  0.38466599  0.46091013     0.06500
H100        H  0.33398569  0.36602003  0.37935392     0.06350
C101        C  0.16636956  0.07701745  0.60634489     0.03390
C102        C  0.17894809  0.10773191  0.59483603    -0.12760
C103        C  0.20456977  0.12054215  0.57319408     0.00890
C104        C  0.21731513  0.10217128  0.56321963    -0.11290
C105        C  0.20318428  0.07088676  0.57203943     0.03380
C106        C  0.17767628  0.05833710  0.59346533    -0.10710
H107        H  0.16801121  0.12096725  0.60179966     0.08970
H108        H  0.23691948  0.11159675  0.54632864     0.06500
H109        H  0.16608284  0.03379636  0.59925412     0.06350
C110        C  0.08782876  0.41720569  0.39203723     0.03390
C111        C  0.11725126  0.43555744  0.40678797    -0.12760
C112        C  0.12871825  0.42244449  0.42970474     0.00890
C113        C  0.11013687  0.39110162  0.43823835    -0.11290
C114        C  0.08077058  0.37219886  0.42416914     0.03380
C115        C  0.07045591  0.38524923  0.39992445    -0.10710
H116        H  0.13092085  0.45978653  0.40061446     0.08970
H117        H  0.11848869  0.38163420  0.45723697     0.06500
H118        H  0.04880067  0.37076245  0.38729509     0.06350
C119        C  0.02003547  0.23512425  0.50879901     0.00820
C120        C  0.01920538  0.26250670  0.50696085     0.00820
C121        C  0.26788751  0.48957838  0.50776741     0.00820
C122        C  0.23895594  0.48682503  0.51162503     0.00820
C123        C  0.08726421  0.15433738  0.38576397     0.03390
C124        C  0.06928013  0.16675566  0.39812311    -0.12760
C125        C  0.08274916  0.19313002  0.41869119     0.00890
C126        C  0.11444544  0.20734588  0.42608443    -0.11290
C127        C  0.13178169  0.19320241  0.41771939     0.03380
C128        C  0.11803039  0.16655518  0.39729657    -0.10710
H129        H  0.04471766  0.15512872  0.39269897     0.08970
H130        H  0.12472012  0.22761271  0.44224007     0.06500
H131        H  0.13055624  0.15459631  0.39150755     0.06350
C132        C  0.42653419  0.32829267  0.60834245     0.03390
C133        C  0.44165392  0.31154705  0.60116115    -0.12760
C134        C  0.43172950  0.28989000  0.57468957     0.00890
C135        C  0.40341536  0.28183558  0.55875734    -0.11290
C136        C  0.38489268  0.29416063  0.56978518     0.03380
C137        C  0.39744342  0.31833134  0.59343464    -0.10710
H138        H  0.46224515  0.31658819  0.61498565     0.08970
H139        H  0.39582969  0.26626692  0.53757864     0.06500
H140        H  0.38453496  0.32967672  0.60003602     0.06350
C141        C  0.27172949  0.25952102  0.49524814     0.00820
C142        C  0.24356405  0.23232088  0.49603878     0.00820
O143        O  0.01571265  0.04882560  0.21874712    -0.85090
O144        O  0.46415738  0.49289444  0.20093561    -0.82140
C145        C  0.44677840  0.46386791  0.19764876     0.98370
O146        O  0.44987716  0.44595732  0.21729926    -0.82170
O147        O  0.00610463  0.45056603  0.20213676    -0.84820
C148        C  0.03511800  0.46206568  0.20006636     1.02900
O149        O  0.05293037  0.48269934  0.22056520    -0.77580
O150        O  0.05036422  0.03579295  0.20489923    -0.77770
C151        C  0.03823938  0.05262827  0.20090905     1.02850
O152        O  0.00180352  0.03334484  0.28778193    -0.85090
O153        O  0.44747680  0.47984256  0.26980851    -0.82150
C154        C  0.44445531  0.45831134  0.28894449     0.98390
O155        O  0.46285301  0.44786289  0.28650884    -0.82180
O156        O  0.01630510  0.44625472  0.27163024    -0.84790
C157        C  0.03656720  0.46419936  0.29214860     1.02860
O158        O  0.04721269  0.49317236  0.29005790    -0.77610
O159        O  0.04988037  0.04865676  0.27396974    -0.77750
C160        C  0.03055283  0.05125018  0.29210070     1.02820
Cr161      Cr  0.48411803  0.01209589  0.24439792     1.93740
Cr162      Cr  0.48549645  0.45110166  0.24445603     1.93210
Cr163      Cr  0.04668530  0.01330653  0.24723662     1.39100
O164        O  0.00544872  0.49226829  0.24536757    -1.22840
C165        C  0.30701159  0.24496775  0.52620124    -0.05520
C166        C  0.29756709  0.26680832  0.51978556     0.00400
C167        C  0.31512683  0.29678476  0.53453931    -0.08170
C168        C  0.34425844  0.30548697  0.54837998    -0.05550
C169        C  0.35339505  0.28347837  0.55508872     0.00390
C170        C  0.33201897  0.25189982  0.54747456    -0.08080
C171        C  0.33247134  0.22467401  0.56362370     0.62300
H172        H  0.29445110  0.22190109  0.51559568     0.13000
H173        H  0.35941024  0.32966530  0.55480248     0.13010
C174        C  0.30382053  0.31992365  0.53721997     0.62540
F175        F  0.30288732  0.20332394  0.57429464    -0.22630
F176        F  0.35146645  0.23355265  0.59134830    -0.19960
F177        F  0.34183153  0.21032435  0.54071954    -0.19640
F178        F  0.31277888  0.33530994  0.56752771    -0.19690
F179        F  0.27184260  0.30535324  0.53588270    -0.20010
F180        F  0.31659089  0.34163289  0.51204163    -0.22690
C181        C  0.16065626  0.20591321  0.47068890    -0.05520
C182        C  0.16164659  0.20383382  0.43584386     0.00400
C183        C  0.19085289  0.21511358  0.42013224    -0.08170
C184        C  0.21763403  0.22600441  0.44019503    -0.05550
C185        C  0.21620510  0.22691837  0.47517466     0.00390
C186        C  0.18750966  0.21909122  0.49028075    -0.08080
C187        C  0.18429517  0.22555666  0.52660381     0.62300
H188        H  0.13850953  0.19823011  0.48275804     0.13000
H189        H  0.23977537  0.23305613  0.42861218     0.13010
C190        C  0.19404922  0.21473822  0.38266839     0.62540
F191        F  0.16347669  0.23618070  0.52955400    -0.22630
F192        F  0.21205909  0.24829664  0.53995441    -0.19960
F193        F  0.17332796  0.19850728  0.54480897    -0.19640
F194        F  0.17567044  0.22451359  0.36707908    -0.19690
F195        F  0.18540502  0.18493885  0.37249608    -0.20010
F196        F  0.22437184  0.23425695  0.37269250    -0.22690
C197        C  0.04626690  0.10027196  0.37134844    -0.05520
C198        C  0.07312615  0.12782872  0.36183694     0.00400
C199        C  0.08435082  0.13059076  0.32887540    -0.08170
C200        C  0.06925382  0.10508441  0.30717723    -0.05550
C201        C  0.04286712  0.07720452  0.31675063     0.00390
C202        C  0.03069657  0.07486586  0.34925161    -0.08080
C203        C  0.50204986  0.04557909  0.36090372     0.62300
H204        H  0.03756319  0.09888291  0.39637665     0.13000
H205        H  0.07814005  0.10678056  0.28217354     0.13010
C206        C  0.11190731  0.16039964  0.31619843     0.62540
F207        F  0.49556832  0.04739753  0.39409608    -0.22630
F208        F  0.50657944  0.02051471  0.35719210    -0.19960
F209        F  0.47662250  0.04072842  0.34231153    -0.19640
F210        F  0.13879116  0.16406546  0.33022526    -0.19690
F211        F  0.10862123  0.18566537  0.32421066    -0.20010
F212        F  0.11485962  0.15999460  0.28197622    -0.22690
C213        C  0.46573219  0.24585674  0.52877746    -0.05520
C214        C  0.49761364  0.26788771  0.52888844     0.00400
C215        C  0.50746619  0.29660807  0.54568324    -0.08170
C216        C  0.48506184  0.30258796  0.55916804    -0.05550
C217        C  0.45348681  0.27989421  0.56097006     0.00390
C218        C  0.44421484  0.25006338  0.54735565    -0.08080
C219        C  0.41274432  0.22159268  0.55249857     0.62300
H220        H  0.45730147  0.22469824  0.51442890     0.13000
H221        H  0.49275603  0.32569942  0.56849117     0.13010
C222        C  0.04093513  0.32243100  0.54962851     0.62540
F223        F  0.41615000  0.19614317  0.55913618    -0.22630
F224        F  0.39532369  0.21562783  0.52379339    -0.19960
F225        F  0.39738602  0.22502527  0.57925934    -0.19640
F226        F  0.04646611  0.34686862  0.52893650    -0.19690
F227        F  0.06200327  0.31305176  0.54265691    -0.20010
F228        F  0.04609107  0.33293133  0.58225990    -0.22690
C229        C  0.03377355  0.22739514  0.45052018    -0.05520
C230        C  0.03850945  0.22706115  0.48519044     0.00400
C231        C  0.05566048  0.21305314  0.49691193    -0.08170
C232        C  0.06660542  0.19974317  0.47394643    -0.05550
C233        C  0.06385113  0.20206813  0.43957529     0.00390
C234        C  0.04681919  0.21572283  0.42735644    -0.08080
C235        C  0.04211652  0.21761036  0.39032294     0.62300
H236        H  0.01900640  0.23606372  0.44171950     0.13000
H237        H  0.07908110  0.18851688  0.48299373     0.13010
C238        C  0.06343980  0.21125310  0.53314546     0.62540
F239        F  0.52777165  0.23473187  0.38374308    -0.22630
F240        F  0.02361401  0.18807247  0.37756220    -0.19960
F241        F  0.07042057  0.23160555  0.37416800    -0.19640
F242        F  0.04397426  0.18162361  0.54504566    -0.19690
F243        F  0.06098158  0.23232471  0.55307332    -0.20010
F244        F  0.09382355  0.21770421  0.53583921    -0.22690
C245        C  0.07752324  0.32373118  0.44496735    -0.05520
C246        C  0.06158742  0.33961688  0.43700471     0.00400
C247        C  0.03046374  0.32674712  0.44814044    -0.08170
C248        C  0.01717208  0.29866337  0.46588798    -0.05550
C249        C  0.03517717  0.28687773  0.48001324     0.00390
C250        C  0.06683431  0.30081834  0.46984812    -0.08080
C251        C  0.09181484  0.29621279  0.48606570     0.62300
H252        H  0.10093739  0.33278466  0.43568863     0.13000
H253        H  0.99269496  0.28731694  0.47168373     0.13010
C254        C  0.01160473  0.34303480  0.44455824     0.62540
F255        F  0.11754090  0.32490758  0.49287359    -0.22630
F256        F  0.10066511  0.28038435  0.46444346    -0.19960
F257        F  0.08274516  0.28064926  0.51584041    -0.19640
F258        F  0.00129512  0.34060288  0.41216374    -0.19690
F259        F  0.02919983  0.37396739  0.45364327    -0.20010
F260        F  0.98572427  0.32992468  0.46498064    -0.22690
C261        C  0.15546876  0.43778010  0.48344522    -0.05520
C262        C  0.15812280  0.44084237  0.44880505     0.00400
C263        C  0.18811275  0.45664117  0.43436527    -0.08170
C264        C  0.21432579  0.46839930  0.45555133    -0.05550
C265        C  0.21152976  0.46486678  0.49050831     0.00390
C266        C  0.18114937  0.44825396  0.50438137    -0.08080
C267        C  0.17355382  0.44066267  0.54094355     0.62300
H268        H  0.13247989  0.42582826  0.49444128     0.13000
H269        H  0.23722755  0.98272546  0.44513195     0.13010
C270        C  0.19272061  0.46259016  0.39719009     0.62540
F271        F  0.15904057  0.45620952  0.55299654    -0.22630
F272        F  0.19902453  0.44834512  0.56024349    -0.19960
F273        F  0.15367414  0.40900849  0.54439593    -0.19640
F274        F  0.18456331  0.48438321  0.38830634    -0.19690
F275        F  0.17475443  0.43539465  0.37958073    -0.20010
F276        F  0.22337308  0.97432961  0.38811053    -0.22690
C277        C  0.06304266  0.41380249  0.33763625    -0.05520
C278        C  0.07511869  0.43046230  0.36733285     0.00400
C279        C  0.07245708  0.45725653  0.37329045    -0.08170
C280        C  0.06062482  0.46787430  0.34771650    -0.05550
C281        C  0.04847739  0.45108009  0.31795861     0.00390
C282        C  0.04810170  0.42238334  0.31377622    -0.08080
C283        C  0.03160037  0.40009937  0.28501287     0.62300
H284        H  0.06474252  0.39317469  0.33364602     0.13000
H285        H  0.05995086  0.48912080  0.35135856     0.13010
C286        C  0.08035965  0.47402045  0.40668719     0.62540
F287        F  0.03510927  0.37419165  0.28597672    -0.22630
F288        F  0.04335182  0.41473540  0.25505532    -0.19960
F289        F  0.00014958  0.38969962  0.28648529    -0.19640
F290        F  0.11189872  0.49442118  0.40885319    -0.19690
F291        F  0.07107293  0.45298948  0.43264368    -0.20010
F292        F  0.06538245  0.49095047  0.41058064    -0.22690
C293        C  0.21850087  0.02298438  0.51003450    -0.05520
C294        C  0.23380516  0.01095713  0.52941687     0.00400
C295        C  0.23925077  0.01989634  0.56385796    -0.08170
C296        C  0.23113716  0.04155515  0.57587797    -0.05550
C297        C  0.21376907  0.05080150  0.55674369     0.00390
C298        C  0.20573289  0.03987254  0.52384911    -0.08080
C299        C  0.18205753  0.04405502  0.50410962     0.62300
H300        H  0.21477421  0.51750806  0.48372920     0.13000
H301        H  0.23641716  0.04965222  0.60145854     0.13010
C302        C  0.25141959  0.00699146  0.59016583     0.62540
F303        F  0.17462569  0.52804396  0.47407216    -0.22630
F304        F  0.19358710  0.07500600  0.49710228    -0.19960
F305        F  0.15513058  0.53321811  0.52222822    -0.19640
F306        F  0.28101023  0.02974634  0.59920256    -0.19690
F307        F  0.25170957  0.98079310  0.58002140    -0.20010
F308        F  0.23267871  0.99883018  0.61810324    -0.22690
C309        C  0.21575011  0.14943575  0.52093603    -0.05520
C310        C  0.21510302  0.15056081  0.55575683     0.00400
C311        C  0.22709058  0.17983823  0.57181810    -0.08170
C312        C  0.23751545  0.20665040  0.55187169    -0.05550
C313        C  0.23769276  0.20499338  0.51683281     0.00390
C314        C  0.22908097  0.17613202  0.50149573    -0.08080
C315        C  0.23481584  0.17235794  0.46508707     0.62300
H316        H  0.20697208  0.12727976  0.50862445     0.13000
H317        H  0.24527800  0.22900792  0.56349802     0.13010
C318        C  0.22921712  0.18306012  0.60945640     0.62540
F319        F  0.24447222  0.15075444  0.46195624    -0.22630
F320        F  0.25790931  0.19968700  0.45155587    -0.19960
F321        F  0.20767172  0.16195753  0.44716809    -0.19640
F322        F  0.24226149  0.16650351  0.62252002    -0.19690
F323        F  0.20001213  0.17207673  0.62278710    -0.20010
F324        F  0.24745831  0.21377386  0.61917532    -0.22690
C325        C  0.39337128  0.42360534  0.36623834    -0.05520
C326        C  0.36651615  0.42428265  0.35671882     0.00400
C327        C  0.36466499  0.43411973  0.32420779    -0.08170
C328        C  0.39068693  0.44493671  0.30317199    -0.05550
C329        C  0.41788446  0.44487029  0.31282506     0.00390
C330        C  0.41887225  0.43300711  0.34465609    -0.08080
C331        C  0.44638885  0.43005485  0.35600791     0.62300
H332        H  0.39393766  0.41507766  0.39088086     0.13000
H333        H  0.38975696  0.45323953  0.27852571     0.13010
C334        C  0.33504058  0.43199988  0.31116530     0.62540
F335        F  0.44330998  0.42010872  0.38869330    -0.22630
F336        F  0.47337864  0.45844134  0.35379969    -0.19960
F337        F  0.44887140  0.40861468  0.33619795    -0.19640
F338        F  0.32974967  0.45355279  0.32706373    -0.19690
F339        F  0.31020483  0.40250802  0.31666529    -0.20010
F340        F  0.33662423  0.43771549  0.27728009    -0.22690
C341        C  0.31545449  0.32638611  0.43476199    -0.05520
C342        C  0.29557771  0.33869155  0.43262190     0.00400
C343        C  0.26511309  0.32117413  0.44570435    -0.08170
C344        C  0.25817598  0.29586307  0.46631060    -0.05550
C345        C  0.27844058  0.28404430  0.46957559     0.00390
C346        C  0.30643432  0.29811911  0.45085918    -0.08080
C347        C  0.32794965  0.28489554  0.44778594     0.62300
H348        H  0.33851679  0.33908786  0.42417725     0.13000
H349        H  0.23668603  0.28553978  0.48018432     0.13010
C350        C  0.23895237  0.32761386  0.43845612     0.62540
F351        F  0.33889722  0.28849445  0.41546828    -0.22630
F352        F  0.31311352  0.25353474  0.45476068    -0.19960
F353        F  0.35294004  0.30064633  0.46905190    -0.19640
F354        F  0.24563921  0.34814167  0.41240993    -0.19690
F355        F  0.23252058  0.33926283  0.46674991    -0.20010
F356        F  0.21262448  0.30011807  0.42958273    -0.22690
C357        C  0.26985219  0.42432427  0.45699268    -0.05520
C358        C  0.29945662  0.44067313  0.44187909     0.00400
C359        C  0.31682927  0.47343477  0.44688795    -0.08170
C360        C  0.30293662  0.48778077  0.46457234    -0.05550
C361        C  0.27554885  0.47095412  0.48344046     0.00390
C362        C  0.25970500  0.43807223  0.48083141    -0.08080
C363        C  0.23468737  0.41608937  0.50459566     0.62300
H364        H  0.25553386  0.39957636  0.45282079     0.13000
H365        H  0.31509310  0.01283819  0.46567168     0.13010
C366        C  0.35049650  0.49396819  0.43644932     0.62540
F367        F  0.24014408  0.39236764  0.51354270    -0.22630
F368        F  0.20603903  0.40311402  0.48919187    -0.19960
F369        F  0.23433019  0.43061858  0.53367600    -0.19640
F370        F  0.35184737  0.50314540  0.40372889    -0.19690
F371        F  0.36709039  0.47872323  0.44042031    -0.20010
F372        F  0.36512634  0.02065591  0.45582799    -0.22690
C373        C  0.47104074  0.17566063  0.57704285    -0.05520
C374        C  0.45402074  0.14937385  0.55695522     0.00400
C375        C  0.45728206  0.15199886  0.52194324    -0.08170
C376        C  0.47758916  0.18106822  0.50836686    -0.05550
C377        C  0.49645726  0.20731033  0.52815014     0.00390
C378        C  0.49254582  0.20475687  0.56351739    -0.08080
C379        C  0.00992328  0.23065461  0.58871771     0.62300
H380        H  0.46810793  0.17314563  0.60384231     0.13000
H381        H  0.47941469  0.18338455  0.48154811     0.13010
C382        C  0.44047904  0.12413595  0.49872050     0.62540
F383        F  0.98901787  0.23664127  0.60506198    -0.22630
F384        F  0.03259725  0.25794257  0.57493836    -0.19960
F385        F  0.02402492  0.22120976  0.61193980    -0.19640
F386        F  0.40914392  0.11406158  0.49843528    -0.19690
F387        F  0.44504897  0.10022617  0.50910488    -0.20010
F388        F  0.45107525  0.13130899  0.46625251    -0.22690
C389        C  0.34185094  0.06254704  0.53560761    -0.05520
C390        C  0.35230923  0.05077349  0.56160618     0.00400
C391        C  0.33182217  0.01969667  0.57211346    -0.08170
C392        C  0.30653664  0.00046070  0.55173011    -0.05550
C393        C  0.29546861  0.01257492  0.52725079     0.00390
C394        C  0.31343530  0.04445179  0.51904530    -0.08080
C395        C  0.30562243  0.06030501  0.49138809     0.62300
H396        H  0.35616636  0.08583057  0.52650072     0.13000
H397        H  0.29347712  0.47578381  0.55698306     0.13010
C398        C  0.33294682  0.50634452  0.60578323     0.62540
F399        F  0.30151762  0.08352187  0.50512231    -0.22630
F400        F  0.27926172  0.04047264  0.47365610    -0.19960
F401        F  0.32998508  0.07360236  0.46901504    -0.19640
F402        F  0.35145022  0.02918432  0.62847445    -0.19690
F403        F  0.34326924  0.48535902  0.60193182    -0.20010
F404        F  0.30350387  0.49061560  0.61940095    -0.22690
C405        C  0.42065845  0.36081032  0.65196146    -0.05520
C406        C  0.44068557  0.35624200  0.63106036     0.00400
C407        C  0.47273273  0.37966881  0.63080783    -0.08170
C408        C  0.48369034  0.40364054  0.65477342    -0.05550
C409        C  0.46349670  0.40802827  0.67547734     0.00390
C410        C  0.43094834  0.38767679  0.67151798    -0.08080
C411        C  0.40662879  0.39474965  0.68535850     0.62300
H412        H  0.39631012  0.34340197  0.65250907     0.13000
H413        H  0.00838618  0.41981545  0.65655276     0.13010
C414        C  0.49580688  0.38140837  0.60493636     0.62540
F415        F  0.37776929  0.37587762  0.67112830    -0.22630
F416        F  0.41493075  0.42514156  0.67816840    -0.19960
F417        F  0.40351385  0.39015920  0.71936350    -0.19640
F418        F  0.98161185  0.37026917  0.57441614    -0.19690
F419        F  0.50959776  0.36483587  0.61576761    -0.20010
F420        F  0.01901735  0.41189024  0.60000720    -0.22690
C421        C  0.11707076  0.03856561  0.68286351    -0.05520
C422        C  0.08971727  0.03902124  0.67558874     0.00400
C423        C  0.08763326  0.05203853  0.64484291    -0.08170
C424        C  0.11306145  0.06394599  0.62277856    -0.05550
C425        C  0.14049200  0.06390906  0.63070354     0.00390
C426        C  0.14295433  0.05185235  0.66174997    -0.08080
C427        C  0.17312029  0.05420256  0.67355676     0.62300
H428        H  0.11833758  0.02791985  0.70566850     0.13000
H429        H  0.11177364  0.07345597  0.59898389     0.13010
C430        C  0.05844121  0.05222550  0.63450184     0.62540
F431        F  0.17230018  0.04792283  0.70720113    -0.22630
F432        F  0.19763831  0.08394955  0.66837226    -0.19960
F433        F  0.17850205  0.03313483  0.65670153    -0.19640
F434        F  0.05393001  0.07209208  0.65483199    -0.19690
F435        F  0.03334421  0.02252388  0.63691982    -0.20010
F436        F  0.05998177  0.06199716  0.60193336    -0.22690
C437        C  0.46022253  0.05731815  0.68101843    -0.05520
C438        C  0.46332947  0.03156333  0.67252803     0.00400
C439        C  0.45663558  0.02005033  0.63916181    -0.08170
C440        C  0.44677462  0.03476019  0.61614516    -0.05550
C441        C  0.44401358  0.06059976  0.62489628     0.00390
C442        C  0.45000858  0.07158971  0.65818520    -0.08080
C443        C  0.44429201  0.09735375  0.67022585     0.62300
H444        H  0.46553794  0.06614313  0.70626213     0.13000
H445        H  0.44137255  0.02609990  0.59077701     0.13010
C446        C  0.45993546  0.99331518  0.62545733     0.62540
F447        F  0.44665501  0.10067995  0.70453269    -0.22630
F448        F  0.41475303  0.09068776  0.66128278    -0.19960
F449        F  0.46583973  0.12539528  0.65642517    -0.19640
F450        F  0.43084345  0.46902658  0.61699063    -0.19690
F451        F  0.97356212  0.98231478  0.64719741    -0.20010
F452        F  0.47805534  0.00302400  0.59703707    -0.22690
C453        C  0.04788387  0.10707055  0.12957355    -0.05520
C454        C  0.07667408  0.13336888  0.13740172     0.00400
C455        C  0.09304624  0.13227073  0.16599227    -0.08170
C456        C  0.08079715  0.10441079  0.18426989    -0.05550
C457        C  0.05162246  0.07879294  0.17699814     0.00390
C458        C  0.03460189  0.08021064  0.14950316    -0.08080
C459        C  0.50249162  0.05348205  0.14132003     0.62300
H460        H  0.03562459  0.10774151  0.10761086     0.13000
H461        H  0.09330059  0.10324792  0.20582858     0.13010
C462        C  0.12262351  0.15995808  0.17912274     0.62540
F463        F  0.49119456  0.05817099  0.11170676    -0.22630
F464        F  0.48216673  0.05042781  0.16640841    -0.19960
F465        F  0.50337359  0.02623015  0.13841752    -0.19640
F466        F  0.12628466  0.18796111  0.16828670    -0.19690
F467        F  0.14785195  0.15740683  0.16926843    -0.20010
F468        F  0.12204157  0.16051545  0.21354977    -0.22690
C469        C  0.17677560  0.23722575  0.04745380    -0.05520
C470        C  0.15993036  0.20593286  0.05765242     0.00400
C471        C  0.16980164  0.18530349  0.04620436    -0.08170
C472        C  0.19738882  0.19765257  0.02811700    -0.05550
C473        C  0.21217299  0.22778525  0.01424758     0.00390
C474        C  0.20021362  0.24758052  0.02311996    -0.08080
C475        C  0.20806455  0.27809123  0.00657552     0.62300
H476        H  0.16934994  0.25318040  0.05595320     0.13000
H477        H  0.20649115  0.18246110  0.02352927     0.13010
C478        C  0.15107598  0.15004825  0.04997731     0.62540
F479        F  0.18090331  0.27669732  0.99613514    -0.22630
F480        F  0.22658764  0.28474824  0.97895654    -0.19960
F481        F  0.22248958  0.30208510  0.02935051    -0.19640
F482        F  0.11972849  0.13912176  0.04567774    -0.19690
F483        F  0.15643645  0.14148977  0.08088306    -0.20010
F484        F  0.15943860  0.13537656  0.02615053    -0.22690
C485        C  0.04624020  0.21673379  0.07752732    -0.05520
C486        C  0.05885929  0.20180374  0.05902106     0.00400
C487        C  0.05200544  0.19619702  0.02469873    -0.08170
C488        C  0.03507989  0.20830550  0.00966865    -0.05550
C489        C  0.02000876  0.22111381  0.02809369     0.00390
C490        C  0.02554041  0.22507921  0.06326250    -0.08080
C491        C  0.01019193  0.23657897  0.08764067     0.62300
H492        H  0.05165165  0.22074047  0.10387983     0.13000
H493        H  0.03211944  0.20615381  0.98290683     0.13010
C494        C  0.06036413  0.17560508  0.00414802     0.62540
F495        F  0.99857219  0.21635872  0.11432737    -0.22630
F496        F  0.98582632  0.23844426  0.07412677    -0.19960
F497        F  0.03205828  0.26556877  0.09946966    -0.19640
F498        F  0.05341520  0.14903451  0.02180576    -0.19690
F499        F  0.09151341  0.19130277  0.99620949    -0.20010
F500        F  0.04372369  0.16626156  0.97460913    -0.22690
C501        C  0.20864377  0.44983951  0.02592011    -0.05520
C502        C  0.21859224  0.48123580  0.01942941     0.00400
C503        C  0.20206824  0.49449171  0.03471666    -0.08170
C504        C  0.17352166  0.47468840  0.05022493    -0.05550
C505        C  0.16383247  0.44333317  0.05643425     0.00390
C506        C  0.18425243  0.43237469  0.04789478    -0.08080
C507        C  0.18335524  0.40436017  0.06366378     0.62300
H508        H  0.22044441  0.43879990  0.01481741     0.13000
H509        H  0.15892402  0.48401184  0.05777315     0.13010
C510        C  0.21361713  0.02910211  0.03516382     0.62540
F511        F  0.17498149  0.38122514  0.04017711    -0.22630
F512        F  0.16347130  0.39338755  0.09056170    -0.19960
F513        F  0.21257109  0.41259587  0.07540157    -0.19640
F514        F  0.20076413  0.03671184  0.00889504    -0.19690
F515        F  0.24561092  0.04632971  0.03341115    -0.20010
F516        F  0.20503064  0.03728576  0.06460067    -0.22690
C517        C  0.04991684  0.29206551  0.02645701    -0.05520
C518        C  0.01813912  0.28205210  0.02616598     0.00400
C519        C  0.00825771  0.30200193  0.04029711    -0.08170
C520        C  0.03067037  0.33143170  0.05194330    -0.05550
C521        C  0.06224684  0.34057245  0.05454416     0.00390
C522        C  0.07165064  0.31943152  0.04282865    -0.08080
C523        C  0.10389349  0.32422577  0.04691466     0.62300
H524        H  0.05806283  0.27836009  0.01362619     0.13000
H525        H  0.02314850  0.34757975  0.05928100     0.13010
C526        C  0.47457654  0.29402439  0.04244722     0.62540
F527        F  0.10297536  0.29598361  0.04932315    -0.22630
F528        F  0.11756803  0.34047757  0.07572441    -0.19960
F529        F  0.12139562  0.33960414  0.01933948    -0.19640
F530        F  0.45485299  0.26259202  0.04613748    -0.19690
F531        F  0.46656088  0.30422943  0.01419423    -0.20010
F532        F  0.47011690  0.30830605  0.06985220    -0.22690
C533        C  0.07118659  0.44290382  0.18690808    -0.05520
C534        C  0.04876020  0.44995206  0.17539220     0.00400
C535        C  0.04076260  0.44595302  0.14111184    -0.08170
C536        C  0.05479922  0.43391198  0.11985857    -0.05550
C537        C  0.07629688  0.42581135  0.13186596     0.00390
C538        C  0.08432091  0.42987058  0.16596671    -0.08080
C539        C  0.10589281  0.41952855  0.18025636     0.62300
H540        H  0.07828740  0.44749922  0.21270091     0.13000
H541        H  0.04919016  0.43078612  0.09354730     0.13010
C542        C  0.01897291  0.45599055  0.12673964     0.62540
F543        F  0.10866729  0.42317091  0.21451237    -0.22630
F544        F  0.13510564  0.43677454  0.16652943    -0.19960
F545        F  0.09440114  0.38842154  0.17306988    -0.19640
F546        F  0.02951103  0.98675140  0.13535815    -0.19690
F547        F  0.98935157  0.43738214  0.13900201    -0.20010
F548        F  0.01753336  0.45384992  0.09232174    -0.22690
C549        C  0.08078674  0.03143215  0.85319330    -0.05520
C550        C  0.08877678  0.03232381  0.81948994     0.00400
C551        C  0.12040790  0.04621755  0.81053103    -0.08170
C552        C  0.14318353  0.05953959  0.83538243    -0.05550
C553        C  0.13545165  0.05899190  0.86896515     0.00390
C554        C  0.10376903  0.04447324  0.87834969    -0.08080
C555        C  0.09435628  0.04213213  0.91463692     0.62300
H556        H  0.05644494  0.02066638  0.85957951     0.13000
H557        H  0.16750055  0.07028841  0.82884795     0.13010
C558        C  0.12998268  0.04583318  0.77491016     0.62540
F559        F  0.06248709  0.02480794  0.91849871    -0.22830
F560        F  0.10431873  0.07144005  0.92750285    -0.19960
F561        F  0.10748857  0.02800427  0.93275242    -0.19640
F562        F  0.12087025  0.06254401  0.75510833    -0.19690
F563        F  0.11605866  0.01536632  0.76398509    -0.20010
F564        F  0.16177238  0.05883904  0.77180321    -0.22690
C565        C  0.20273077  0.16679481  0.92849612    -0.05520
C566        C  0.21098746  0.14649748  0.94367736     0.00400
C567        C  0.23099316  0.15787904  0.97209815    -0.08170
C568        C  0.24532548  0.18975870  0.97994751    -0.05550
C569        C  0.23303331  0.20801602  0.96829601     0.00390
C570        C  0.20998134  0.19536979  0.94285407    -0.08080
C571        C  0.19107699  0.20944148  0.93002584     0.62300
H572        H  0.18852363  0.15971073  0.90628429     0.13000
H573        H  0.26164651  0.19862806  0.00052570     0.13010
C574        C  0.23404415  0.13738487  0.99823146     0.62540
F575        F  0.19734774  0.21649245  0.89660546    -0.22630
F576        F  0.19660900  0.23582893  0.94664120    -0.19960
F577        F  0.15985148  0.18797189  0.93350290    -0.19640
F578        F  0.26227004  0.13867440  0.99476787    -0.19690
F579        F  0.21015337  0.10689132  0.99649895    -0.20010
F580        F  0.23287968  0.14791310  0.02987677    -0.22690
C581        C  0.20004862  0.01882210  0.93166420    -0.05520
C582        C  0.22000030  0.05089541  0.92690753     0.00400
C583        C  0.25104717  0.06406984  0.93831830    -0.08170
C584        C  0.25797174  0.04759389  0.96179339    -0.05550
C585        C  0.23746896  0.01580773  0.96783900     0.00390
C586        C  0.20942073  0.00062746  0.94923534    -0.08080
C587        C  0.18804058  0.46564461  0.94823814     0.62300
H588        H  0.17642346  0.00759689  0.92260705     0.13000
H589        H  0.27993244  0.05973306  0.97479727     0.13010
C590        C  0.27787904  0.09402062  0.92501898     0.62540
F591        F  0.16479533  0.45691211  0.97163470    -0.22630
F592        F  0.20410323  0.95009191  0.95391572    -0.19960
F593        F  0.17448602  0.45655055  0.91706369    -0.19640
F594        F  0.28997926  0.11611436  0.95004784    -0.19690
F595        F  0.26929461  0.10559095  0.89830269    -0.20010
F596        F  0.30092141  0.08835890  0.91405899    -0.22690
C597        C  0.37343333  0.40923586  0.14803243    -0.05520
C598        C  0.37345759  0.42913790  0.12334209     0.00400
C599        C  0.39923760  0.45981956  0.12136880    -0.08170
C600        C  0.42185710  0.47034662  0.14669981    -0.05550
C601        C  0.42172781  0.45051459  0.17172769     0.00390
C602        C  0.39760932  0.41867056  0.17128502    -0.08080
C603        C  0.39659887  0.39418446  0.19486077     0.62300
H604        H  0.35376251  0.38588581  0.14923586     0.13000
H605        H  0.44051758  0.49423897  0.14612315     0.13010
C606        C  0.40474503  0.48196172  0.09276260     0.62540
F607        F  0.37147220  0.36492970  0.18866610    -0.22630
F608        F  0.39429606  0.40180774  0.22748687    -0.19960
F609        F  0.42304826  0.39201810  0.19083741    -0.19640
F610        F  0.39689334  0.50378598  0.10266487    -0.19690
F611        F  0.38809539  0.46679468  0.06451708    -0.20010
F612        F  0.43581171  0.99727648  0.08399141    -0.22690
C613        C  0.28483930  0.31638211  0.06737373    -0.05520
C614        C  0.29561273  0.34436961  0.04983926     0.00400
C615        C  0.29826523  0.34427095  0.01472518    -0.08170
C616        C  0.28758393  0.31597646  0.99833196    -0.05550
C617        C  0.27544068  0.28767350  0.01534777     0.00390
C618        C  0.27579273  0.28801059  0.05077568    -0.08080
C619        C  0.26872686  0.26022540  0.07231754     0.62300
H620        H  0.28430301  0.31686260  0.09436391     0.13000
H621        H  0.28837616  0.31571899  0.97137725     0.13010
C622        C  0.31072881  0.37330560  0.99363831     0.62540
F623        F  0.29315067  0.26829281  0.09410907    -0.22630
F624        F  0.26469343  0.23481886  0.05425104    -0.19960
F625        F  0.24216243  0.25179642  0.09060090    -0.19640
F626        F  0.33561904  0.39831619  0.00894941    -0.19690
F627        F  0.28706962  0.37955778  0.98837411    -0.20010
F628        F  0.32084484  0.36930839  0.96286463    -0.22690
C629        C  0.29816354  0.44323843  0.02221581    -0.05520
C630        C  0.29561312  0.44265655  0.05692367     0.00400
C631        C  0.28348955  0.45989268  0.07251622    -0.08170
C632        C  0.27551414  0.47814150  0.05230705    -0.05550
C633        C  0.27749840  0.47784476  0.01722122     0.00390
C634        C  0.28682618  0.45806641  0.00209746    -0.08080
C635        C  0.28432404  0.45112731  0.96497424     0.62300
H636        H  0.30836742  0.43094988  0.01049250     0.13000
H637        H  0.26776556  0.49278971  0.06374044     0.13010
C638        C  0.27867562  0.45882677  0.10989509     0.62540
F639        F  0.27737604  0.42088415  0.95933519    -0.22630
F640        F  0.31224822  0.47080915  0.94966626    -0.19960
F641        F  0.26072797  0.45391187  0.95045830    -0.19640
F642        F  0.30698161  0.47403245  0.12599069    -0.19690
F643        F  0.26250927  0.42830351  0.12054396    -0.20010
F644        F  0.26190948  0.47300167  0.11899841    -0.22690
C645        C  0.43973356  0.35282419  0.83266453    -0.05520
C646        C  0.43668162  0.35970063  0.86577427     0.00400
C647        C  0.44653640  0.39085675  0.87506294    -0.08170
C648        C  0.45765262  0.41387113  0.85013763    -0.05550
C649        C  0.46083822  0.40700809  0.81693783     0.00390
C650        C  0.45218401  0.37596201  0.80805844    -0.08080
C651        C  0.45550736  0.36684048  0.77279900     0.62300
H652        H  0.43263878  0.32897646  0.82639232     0.13000
H653        H  0.46481250  0.43770298  0.85657032     0.13010
C654        C  0.44683921  0.40010000  0.91124489     0.62540
F655        F  0.44238053  0.33499789  0.76918144    -0.22630
F656        F  0.48651859  0.38037358  0.76449486    -0.19960
F657        F  0.44079388  0.37642501  0.75079577    -0.19640
F658        F  0.46258438  0.38940800  0.93047265    -0.19690
F659        F  0.41688241  0.38763610  0.92295292    -0.20010
F660        F  0.46146809  0.43204257  0.91513268    -0.22690
C661        C  0.32986433  0.27874191  0.92663516    -0.05520
C662        C  0.35586812  0.28828701  0.94709939     0.00400
C663        C  0.35193093  0.28558699  0.98212353    -0.08170
C664        C  0.32170686  0.27136892  0.99495856    -0.05550
C665        C  0.29577186  0.26429555  0.97487349     0.00390
C666        C  0.30028486  0.26904668  0.93981776    -0.08080
C667        C  0.27590134  0.26618945  0.91525918     0.62300
H668        H  0.33312774  0.28061692  0.89985489     0.13000
H669        H  0.31854031  0.26842058  0.02166290     0.13010
C670        C  0.37903005  0.29994020  0.00650541     0.62540
F671        F  0.28924303  0.28877082  0.89087170    -0.22630
F672        F  0.25340018  0.27026906  0.93019456    -0.19960
F673        F  0.26259717  0.23738918  0.90003836    -0.19640
F674        F  0.40344173  0.32703313  0.99381948    -0.19690
F675        F  0.38897216  0.27912328  0.01339515    -0.20010
F676        F  0.37038334  0.30760840  0.03624622    -0.22690
C677        C  0.43584561  0.25185306  0.94520285    -0.05520
C678        C  0.45228043  0.28254414  0.93303715     0.00400
C679        C  0.48477951  0.30017169  0.93958161    -0.08170
C680        C  0.49795003  0.28689598  0.96000934    -0.05550
C681        C  0.47974069  0.25978333  0.97872257     0.00390
C682        C  0.44753222  0.24187428  0.97121636    -0.08080
C683        C  0.42345086  0.21413123  0.99081315     0.62300
H684        H  0.41170976  0.23719044  0.93822695     0.13000
H685        H  0.02279746  0.29919093  0.96387608     0.13010
C686        C  0.00596721  0.33312177  0.92712606     0.62540
F687        F  0.39937873  0.21909152  0.99951230    -0.22630
F688        F  0.43478734  0.20905806  0.01989105    -0.19960
F689        F  0.41162451  0.18773090  0.97116213    -0.19640
F690        F  0.99389282  0.35198488  0.93516039    -0.19690
F691        F  0.50985300  0.33273872  0.89308737    -0.20010
F692        F  0.03521089  0.34649930  0.94138371    -0.22690
C693        C  0.44909234  0.14367609  0.97359420    -0.05520
C694        C  0.45092414  0.14893457  0.93925742     0.00400
C695        C  0.46700376  0.17958332  0.92702838    -0.08170
C696        C  0.48142450  0.20417366  0.95013027    -0.05550
C697        C  0.47759607  0.19908799  0.98489216     0.00390
C698        C  0.46059795  0.16792077  0.99667261    -0.08080
C699        C  0.45368511  0.15822616  0.03297084     0.62300
H700        H  0.43683315  0.11990570  0.98256984     0.13000
H701        H  0.49627316  0.22752247  0.94108460     0.13010
C702        C  0.46852325  0.18617936  0.89003596     0.62540
F703        F  0.42268167  0.13597145  0.03638202    -0.22630
F704        F  0.45912180  0.18224087  0.05400861    -0.19960
F705        F  0.47154877  0.14558733  0.04305690    -0.19640
F706        F  0.43881787  0.17266027  0.87706865    -0.19690
F707        F  0.48470961  0.17412673  0.87396205    -0.20010
F708        F  0.48323131  0.21774720  0.88364471    -0.22690
C709        C  0.35535833  0.05581101  0.97116172    -0.05520
C710        C  0.35382185  0.05359934  0.93632834     0.00400
C711        C  0.32468553  0.03636221  0.92045009    -0.08170
C712        C  0.29810845  0.01993126  0.94045435    -0.05550
C713        C  0.29986949  0.02136878  0.97556243     0.00390
C714        C  0.32878273  0.04151165  0.99093177    -0.08080
C715        C  0.33244495  0.04904181  0.02792086     0.62300
H716        H  0.37776825  0.06977190  0.98303059     0.13000
H717        H  0.27585323  0.00536216  0.92873662     0.13010
C718        C  0.32160299  0.03569266  0.88281824     0.62540
F719        F  0.33981241  0.02922431  0.04442614    -0.22630
F720        F  0.30575654  0.04665706  0.04125959    -0.19960
F721        F  0.35605999  0.07928127  0.03332242    -0.19640
F722        F  0.33521985  0.02004432  0.86884894    -0.19690
F723        F  0.33597303  0.06572005  0.87065047    -0.20010
F724        F  0.29084666  0.02087542  0.87287347    -0.22690
C725        C  0.42417559  0.04857553  0.83740895    -0.05520
C726        C  0.44114109  0.06218699  0.86651164     0.00400
C727        C  0.46939890  0.06242764  0.87201830    -0.08170
C728        C  0.48058624  0.05081967  0.84683011    -0.05550
C729        C  0.46347593  0.03696824  0.81763737     0.00390
C730        C  0.43431106  0.03539701  0.81307486    -0.08080
C731        C  0.41376749  0.02053901  0.78266378     0.62300
H732        H  0.40260579  0.04853665  0.83383359     0.13000
H733        H  0.00259853  0.05174863  0.85046049     0.13010
C734        C  0.48801767  0.07403861  0.90406952     0.62540
F735        F  0.38838430  0.02486404  0.78221059    -0.22630
F736        F  0.40252077  0.48883830  0.78266454    -0.19960
F737        F  0.43046259  0.03353100  0.75390925    -0.19640
F738        F  0.46968138  0.07211902  0.93084878    -0.19690
F739        F  0.51130707  0.10454162  0.90003584    -0.20010
F740        F  0.00147128  0.05629376  0.91178136    -0.22690
C741        C  0.42818404  0.57636985  0.88935669     0.03390
C742        C  0.44582037  0.60769235  0.89924841    -0.12760
C743        C  0.43212041  0.62121580  0.91840399     0.00890
C744        C  0.40043422  0.60408289  0.92550011    -0.11290
C745        C  0.38328323  0.57238735  0.91827146     0.03380
C746        C  0.39724110  0.55853795  0.90020865    -0.10710
H747        H  0.47024749  0.62092388  0.89336671     0.08970
H748        H  0.39011406  0.61447855  0.94090054     0.06500
H749        H  0.38458496  0.53375510  0.89553761     0.06350
C750        C  0.42501239  0.83394742  0.89024289     0.03390
C751        C  0.44182300  0.81861122  0.89616201    -0.12760
C752        C  0.43297675  0.79634880  0.92161939     0.00890
C753        C  0.40480617  0.78733156  0.93823313    -0.11290
C754        C  0.38648953  0.80042845  0.93074166     0.03380
C755        C  0.39679478  0.82397058  0.90674896    -0.10710
H756        H  0.46179175  0.82457690  0.88099963     0.08970
H757        H  0.39655433  0.76957796  0.95711556     0.06500
H758        H  0.38272025  0.83426967  0.90069773     0.06350
C759        C  0.34545707  0.91663532  0.10147365     0.03390
C760        C  0.33091575  0.93409575  0.09464128    -0.12760
C761        C  0.30437018  0.92182911  0.07440045     0.00890
C762        C  0.29089582  0.89089896  0.06327805    -0.11290
C763        C  0.30568377  0.87365711  0.06859796     0.03380
C764        C  0.33274331  0.88649471  0.08790879    -0.10710
H765        H  0.34142726  0.95781983  0.10323856     0.08970
H766        H  0.27051663  0.88137012  0.04745956     0.06500
H767        H  0.34455096  0.87338437  0.09134071     0.06350
C768        C  0.16157251  0.57182067  0.89308950     0.03390
C769        C  0.17098360  0.59996935  0.90982432    -0.12760
C770        C  0.19896522  0.61468652  0.92837779     0.00890
C771        C  0.21626832  0.59950671  0.93056416    -0.11290
C772        C  0.20595733  0.57007630  0.91631437     0.03380
C773        C  0.17933824  0.55731558  0.89612052    -0.10710
H774        H  0.15672768  0.61054464  0.90731404     0.08970
H775        H  0.23754887  0.61031811  0.94434533     0.06500
H776        H  0.17202734  0.53578577  0.88276516     0.06350
C777        C  0.09021881  0.91350695  0.10785941     0.03390
C778        C  0.07272981  0.88300487  0.09594460    -0.12760
C779        C  0.08352538  0.87211592  0.06952613     0.00890
C780        C  0.11293859  0.89270564  0.05598661    -0.11290
C781        C  0.13208879  0.92247016  0.06994617     0.03380
C782        C  0.12007599  0.93287010  0.09536689    -0.10710
H783        H  0.05018610  0.86804680  0.10691607     0.08970
H784        H  0.12093273  0.88601862  0.03422918     0.06500
H785        H  0.13377900  0.95614890  0.10537123     0.06350
C786        C  0.27234269  0.99975019  0.99621526     0.00820
C787        C  0.24440586  0.99914732  0.99478909     0.00820
C788        C  0.08909404  0.66028517  0.11383875     0.03390
C789        C  0.06946964  0.67062970  0.10093716    -0.12760
C790        C  0.07989307  0.69302779  0.07561400     0.00890
C791        C  0.11014473  0.70574690  0.06386559    -0.11290
C792        C  0.12983083  0.69521682  0.07525889     0.03380
C793        C  0.11942341  0.67322467  0.10109567    -0.10710
H794        H  0.04581468  0.66056195  0.10973362     0.08970
H795        H  0.11771565  0.72296784  0.04430801     0.06500
H796        H  0.13457250  0.66553964  0.11075339     0.06350
C797        C  0.99675773  0.72576849  0.00821548     0.00820
C798        C  0.99657050  0.75348698  0.00615110     0.00820
C799        C  0.26776806  0.76025041  0.99356852     0.00820
C800        C  0.23835614  0.73496840  0.99005744     0.00820
O801        O  0.00604561  0.95167360  0.70318894    -0.85090
O802        O  0.06197919  0.00412152  0.71981486    -0.82140
C803        C  0.06443733  0.52566270  0.70103755     0.98370
O804        O  0.04687810  0.53676234  0.70528574    -0.82170
O805        O  0.99410476  0.53782317  0.72001907    -0.84820
C806        C  0.47385614  0.51882326  0.69986755     1.02900
O807        O  0.46146263  0.98996015  0.70471309    -0.77580
O808        O  0.45943438  0.93539180  0.72204549    -0.77770
C809        C  0.47706928  0.93341580  0.70099616     1.02850
O810        O  0.99459812  0.93565201  0.77256829    -0.85090
O811        O  0.04726579  0.99097091  0.78931865    -0.82150
C812        C  0.06405197  0.51993374  0.79372030     0.98390
O813        O  0.06114495  0.53892065  0.77528273    -0.82180
O814        O  0.00559901  0.53573196  0.79025567    -0.84790
C815        C  0.47666642  0.52451503  0.79269208     1.02860
O816        O  0.45875597  0.00293818  0.77343452    -0.77610
O817        O  0.46309181  0.95119530  0.79068157    -0.77750
C818        C  0.47359823  0.93276762  0.79237698     1.02820
Cr819      Cr  0.02585604  0.97228734  0.74628997     1.93740
Cr820      Cr  0.02531356  0.53394785  0.74778838     1.93210
Cr821      Cr  0.46406013  0.97166812  0.74777597     1.39100
O822        O  0.00518875  0.99273833  0.74739634    -1.22840
C823        C  0.43178693  0.57387963  0.60000849     0.03390
C824        C  0.40144700  0.55588712  0.58792019    -0.12760
C825        C  0.38546481  0.56989706  0.57372413     0.00890
C826        C  0.40276563  0.60229929  0.56823888    -0.11290
C827        C  0.43494100  0.61880733  0.57292743     0.03380
C828        C  0.44923820  0.60493916  0.59017519    -0.10710
H829        H  0.39053383  0.53114433  0.59074177     0.08970
H830        H  0.39217248  0.61500795  0.55857136     0.06500
H831        H  0.47382188  0.61816935  0.59573427     0.06350
C832        C  0.34042300  0.91208698  0.38099079     0.03390
C833        C  0.33052625  0.93137775  0.39591267    -0.12760
C834        C  0.31143712  0.92162010  0.42458641     0.00890
C835        C  0.30268713  0.89199463  0.43737356    -0.11290
C836        C  0.30834847  0.87092595  0.41989774     0.03380
C837        C  0.32784217  0.88141565  0.39205424    -0.10710
H838        H  0.33864225  0.95404575  0.38572428     0.08970
H839        H  0.29057508  0.88470367  0.46091194     0.06500
H840        H  0.33404162  0.86604591  0.37936243     0.06350
C841        C  0.16631035  0.57700709  0.60629261     0.03390
C842        C  0.17888259  0.60772739  0.59480430    -0.12760
C843        C  0.20450618  0.62055549  0.57316591     0.00890
C844        C  0.21726106  0.60219808  0.56317313    -0.11290
C845        C  0.20313787  0.57090888  0.57196885     0.03380
C846        C  0.17762698  0.55834010  0.59339422    -0.10710
H847        H  0.16794095  0.62095480  0.60178285     0.08970
H848        H  0.23687083  0.61164100  0.54628878     0.06500
H849        H  0.16604312  0.53379762  0.59917258     0.06350
C850        C  0.08785018  0.91720352  0.39204275     0.03390
C851        C  0.11726564  0.93555540  0.40681166    -0.12760
C852        C  0.12873774  0.92243524  0.42971613     0.00890
C853        C  0.11016050  0.89108282  0.43822106    -0.11290
C854        C  0.08079103  0.87218722  0.42415593     0.03380
C855        C  0.07047853  0.88524469  0.39991916    -0.10710
H856        H  0.13092192  0.95978973  0.40066218     0.08970
H857        H  0.11851448  0.88160209  0.45720200     0.06500
H858        H  0.04882305  0.87075998  0.38728976     0.06350
C859        C  0.02002846  0.73512432  0.50880228     0.00820
C860        C  0.01919966  0.76250715  0.50696370     0.00820
C861        C  0.26790577  0.98955580  0.50780103     0.00820
C862        C  0.23896527  0.98678117  0.51166356     0.00820
C863        C  0.08726295  0.65434558  0.38577191     0.03390
C864        C  0.06927801  0.66676367  0.39812778    -0.12760
C865        C  0.08274642  0.69314108  0.41869039     0.00890
C866        C  0.11444350  0.70736202  0.42608006    -0.11290
C867        C  0.13178141  0.69321900  0.41772051     0.03380
C868        C  0.11803022  0.66656722  0.39730357    -0.10710
H869        H  0.04471494  0.65513391  0.39270604     0.08970
H870        H  0.12471719  0.72763186  0.44223140     0.06500
H871        H  0.13055615  0.65460763  0.39151900     0.06350
C872        C  0.42653737  0.82829966  0.60834883     0.03390
C873        C  0.44165366  0.81155118  0.60116570    -0.12760
C874        C  0.43172517  0.78989310  0.57469485     0.00890
C875        C  0.40340939  0.78183946  0.55876661    -0.11290
C876        C  0.38488983  0.79416739  0.56979704     0.03380
C877        C  0.39744505  0.81833933  0.59344523    -0.10710
H878        H  0.46224627  0.81659189  0.61498727     0.08970
H879        H  0.39582057  0.76627010  0.53758847     0.06500
H880        H  0.38453906  0.82968695  0.60004804     0.06350
C881        C  0.27173403  0.75955127  0.49525874     0.00820
C882        C  0.24356154  0.73235992  0.49604861     0.00820
O883        O  0.01568459  0.54882870  0.21876399    -0.85090
O884        O  0.46419173  0.99288791  0.20091483    -0.82140
C885        C  0.44681506  0.96386106  0.19762831     0.98370
O886        O  0.44991984  0.94595175  0.21727526    -0.82170
O887        O  0.00615355  0.95057329  0.20211417    -0.84820
C888        C  0.03516768  0.96207697  0.20004613     1.02900
O889        O  0.05297755  0.98271075  0.22054637    -0.77580
O890        O  0.05032839  0.53578572  0.20491595    -0.77770
C891        C  0.03820909  0.55262584  0.20092517     1.02850
O892        O  0.00177688  0.53335292  0.28780070    -0.85090
O893        O  0.44751130  0.97983142  0.26978561    -0.82150
C894        C  0.44449460  0.95830319  0.28892294     0.98390
O895        O  0.46289451  0.94785736  0.28648606    -0.82180
O896        O  0.01635365  0.94626234  0.27160784    -0.84790
C897        C  0.03661029  0.96420672  0.29213086     1.02860
O898        O  0.04725294  0.99317926  0.29004012    -0.77610
O899        O  0.04985095  0.54865448  0.27398554    -0.77750
C900        C  0.03052749  0.55125365  0.29211736     1.02820
Cr901      Cr  0.48408628  0.51210249  0.24441804     1.93740
Cr902      Cr  0.48554121  0.95110226  0.24443313     1.93210
Cr903      Cr  0.04664695  0.51330009  0.24725434     1.39100
O904        O  0.00548701  0.99226845  0.24534689    -1.22840
C905        C  0.30700019  0.74498272  0.52622232    -0.05520
C906        C  0.29756524  0.76682994  0.51980192     0.00400
C907        C  0.31513183  0.79680673  0.53455249    -0.08170
C908        C  0.34426198  0.80550278  0.54839271    -0.05550
C909        C  0.35339206  0.78348940  0.55510261     0.00390
C910        C  0.33200990  0.75191141  0.54749146    -0.08080
C911        C  0.33246119  0.72468333  0.56363636     0.62300
H912        H  0.29443258  0.72191489  0.51562043     0.13000
H913        H  0.35941854  0.82968083  0.55481288     0.13010
C914        C  0.30383511  0.81995352  0.53722833     0.62540
F915        F  0.30287744  0.70333440  0.57430950    -0.22630
F916        F  0.35145912  0.73355908  0.59135860    -0.19960
F917        F  0.34181794  0.71033361  0.54072822    -0.19640
F918        F  0.31279088  0.83533708  0.56753770    -0.19690
F919        F  0.27185798  0.80539247  0.53588265    -0.20010
F920        F  0.31661666  0.84166377  0.51205217    -0.22690
C921        C  0.16065626  0.70594483  0.47069106    -0.05520
C922        C  0.16164701  0.70385688  0.43584681     0.00400
C923        C  0.19085450  0.71514049  0.42013655    -0.08170
C924        C  0.21763702  0.72604549  0.44020040    -0.05550
C925        C  0.21620727  0.72696547  0.47517969     0.00390
C926        C  0.18750993  0.71913528  0.49028263    -0.08080
C927        C  0.18429200  0.72560915  0.52660181     0.62300
H928        H  0.13850900  0.69826069  0.48275948     0.13000
H929        H  0.23977960  0.73310025  0.42861925     0.13010
C930        C  0.19404974  0.71475405  0.38267340     0.62540
F931        F  0.16348960  0.73625462  0.52953560    -0.22630
F932        F  0.21205854  0.74833630  0.53996045    -0.19960
F933        F  0.17330129  0.69855898  0.54481073    -0.19640
F934        F  0.17567894  0.72453614  0.36707839    -0.19690
F935        F  0.18539342  0.68494934  0.37251040    -0.20010
F936        F  0.22437402  0.73425996  0.37269435    -0.22690
C937        C  0.04626346  0.60027892  0.37136531    -0.05520
C938        C  0.07312304  0.62783357  0.36184927     0.00400
C939        C  0.08434140  0.63059292  0.32888524    -0.08170
C940        C  0.06923704  0.60508638  0.30718846    -0.05550
C941        C  0.04284913  0.57720911  0.31676593     0.00390
C942        C  0.03068581  0.57487285  0.34927003    -0.08080
C943        C  0.50203857  0.54558876  0.36092632     0.62300
H944        H  0.03756432  0.59889216  0.39639537     0.13000
H945        H  0.07811784  0.60678031  0.28218245     0.13010
C946        C  0.11189779  0.66039984  0.31620413     0.62540
F947        F  0.49556380  0.54740917  0.39412055    -0.22630
F948        F  0.50656258  0.52052118  0.35721071    -0.19960
F949        F  0.47660941  0.54074192  0.34234009    -0.19640
F950        F  0.13878207  0.66406746  0.33023189    -0.19690
F951        F  0.10861212  0.68566667  0.32421189    -0.20010
F952        F  0.11484914  0.65999033  0.28198205    -0.22690
C953        C  0.46572491  0.74585797  0.52877904    -0.05520
C954        C  0.49760675  0.76788905  0.52888866     0.00400
C955        C  0.50745967  0.79660977  0.54568255    -0.08170
C956        C  0.48505576  0.80259035  0.55916684    -0.05550
C957        C  0.45348085  0.77989674  0.56097144     0.00390
C958        C  0.44420795  0.75006544  0.54735784    -0.08080
C959        C  0.41273710  0.72159532  0.55250332     0.62300
H960        H  0.45729369  0.72469871  0.51443181     0.13000
H961        H  0.49275054  0.82570218  0.56848864     0.13010
C962        C  0.04092878  0.82243232  0.54962825     0.62540
F963        F  0.41614229  0.69614534  0.55913984    -0.22630
F964        F  0.39531382  0.71563030  0.52380016    -0.19960
F965        F  0.39738108  0.72502903  0.57926582    -0.19640
F966        F  0.04646093  0.84686938  0.52893477    -0.19690
F967        F  0.06199660  0.81305213  0.54265912    -0.20010
F968        F  0.04608404  0.83293384  0.58225920    -0.22690
C969        C  0.03376405  0.72739518  0.45052360    -0.05520
C970        C  0.03850245  0.72706217  0.48519347     0.00400
C971        C  0.05565592  0.71305645  0.49691364    -0.08170
C972        C  0.06660302  0.69974985  0.47394680    -0.05550
C973        C  0.06384710  0.70207536  0.43957606     0.00390
C974        C  0.04681106  0.71572585  0.42735865    -0.08080
C975        C  0.04210558  0.71761198  0.39032555     0.62300
H976        H  0.01899418  0.73606105  0.44172434     0.13000
H977        H  0.07908228  0.68852679  0.48299280     0.13010
C978        C  0.06343919  0.71125795  0.53314601     0.62540
F979        F  0.52775566  0.73472899  0.38374723    -0.22630
F980        F  0.02360634  0.68807326  0.37756537    -0.19960
F981        F  0.07040881  0.73161115  0.37416887    -0.19640
F982        F  0.04398850  0.68162317  0.54504162    -0.19690
F983        F  0.06096405  0.73231610  0.55307973    -0.20010
F984        F  0.09382952  0.71772898  0.53583698    -0.22690
C985        C  0.07752419  0.82371174  0.44495878    -0.05520
C986        C  0.06159824  0.83960657  0.43699336     0.00400
C987        C  0.03047662  0.82674932  0.44813363    -0.08170
C988        C  0.01717849  0.79866936  0.46588867    -0.05550
C989        C  0.03517708  0.78687802  0.48001701     0.00390
C990        C  0.06683291  0.80080850  0.46984973    -0.08080
C991        C  0.09181136  0.79620475  0.48607554     0.62300
H992        H  0.10093545  0.83275359  0.43567626     0.13000
H993        H  0.99270217  0.78733072  0.47168637     0.13010
C994        C  0.01162594  0.84304556  0.44454735     0.62540
F995        F  0.11753715  0.82490064  0.49288002    -0.22630
F996        F  0.10066311  0.78037201  0.46446121    -0.19960
F997        F  0.08273885  0.78064680  0.51585333    -0.19640
F998        F  0.00131526  0.84061133  0.41215295    -0.19690
F999        F  0.02922860  0.87397873  0.45362730    -0.20010
F1000       F  0.98574636  0.82994525  0.46497113    -0.22690
C1001       C  0.15549243  0.93767712  0.48346620    -0.05520
C1002       C  0.15814165  0.94082427  0.44883065     0.00400
C1003       C  0.18813352  0.95670870  0.43439844    -0.08170
C1004       C  0.21434749  0.96842834  0.45558056    -0.05550
C1005       C  0.21155381  0.96482370  0.49053034     0.00390
C1006       C  0.18117623  0.94815260  0.50439809    -0.08080
C1007       C  0.17358266  0.94049091  0.54094931     0.62300
H1008       H  0.13250552  0.92567316  0.49446337     0.13000
H1009       H  0.23720766  0.48264932  0.44508836     0.13010
C1010       C  0.19274703  0.96282382  0.39724945     0.62540
F1011       F  0.15894998  0.95590900  0.55303519    -0.22630
F1012       F  0.19906666  0.94825769  0.56025992    -0.19960
F1013       F  0.15380798  0.90881172  0.54434708    -0.19640
F1014       F  0.18458919  0.98465669  0.38854405    -0.19690
F1015       F  0.17478974  0.93570929  0.37950954    -0.20010
F1016       F  0.22334394  0.47404784  0.38807075    -0.22690
C1017       C  0.06304230  0.91378784  0.33765020    -0.05520
C1018       C  0.07514198  0.93046215  0.36733532     0.00400
C1019       C  0.07251724  0.95728084  0.37327031    -0.08170
C1020       C  0.06069704  0.96790214  0.34768739    -0.05550
C1021       C  0.04851685  0.95108761  0.31794658     0.00390
C1022       C  0.04810481  0.92237056  0.31378786    -0.08080
C1023       C  0.03156835  0.90006636  0.28504884     0.62300
H1024       H  0.06472265  0.89314824  0.33366868     0.13000
H1025       H  0.06005539  0.98916744  0.35131376     0.13010
C1026       C  0.08045507  0.97408144  0.40664580     0.62540
F1027       F  0.03503536  0.87413435  0.28604203    -0.22630
F1028       F  0.04331856  0.91466556  0.25507409    -0.19960
F1029       F  0.00012625  0.88970714  0.28653306    -0.19640
F1030       F  0.11198778  0.99453888  0.40873055    -0.19690
F1031       F  0.07126393  0.95309175  0.43263491    -0.20010
F1032       F  0.06542132  0.99095460  0.41056254    -0.22690
C1033       C  0.21855637  0.52307546  0.50995681    -0.05520
C1034       C  0.23382023  0.51102152  0.52936278     0.00400
C1035       C  0.23923112  0.51994022  0.56381051    -0.08170
C1036       C  0.23109493  0.54158327  0.57582690    -0.05550
C1037       C  0.21375277  0.55084695  0.55667127     0.00390
C1038       C  0.20577874  0.53996261  0.52375311    -0.08080
C1039       C  0.18216236  0.54419547  0.50396005     0.62300
H1040       H  0.21468415  0.01740365  0.48381312     0.13000
H1041       H  0.23634057  0.54965826  0.60141710     0.13010
C1042       C  0.25139559  0.50703480  0.59012317     0.62540
F1043       F  0.17449548  0.02789547  0.47422622    -0.22630
F1044       F  0.19375243  0.57515535  0.49695286    -0.19960
F1045       F  0.15505073  0.03304302  0.52243036    -0.19640
F1046       F  0.28098669  0.52978851  0.59916025    -0.19690
F1047       F  0.25168421  0.48083486  0.57998194    -0.20010
F1048       F  0.23265352  0.49887568  0.61805950    -0.22690
C1049       C  0.21567192  0.64946236  0.52092406    -0.05520
C1050       C  0.21503361  0.65057973  0.55574486     0.00400
C1051       C  0.22704261  0.67985484  0.57181653    -0.08170
C1052       C  0.23749147  0.70667603  0.55187854    -0.05550
C1053       C  0.23767673  0.70502709  0.51683907     0.00390
C1054       C  0.22904032  0.67616370  0.50149460    -0.08080
C1055       C  0.23479401  0.67238940  0.46509229     0.62300
H1056       H  0.20686838  0.62730732  0.50860473     0.13000
H1057       H  0.24526799  0.72903371  0.56351084     0.13010
C1058       C  0.22916208  0.68306219  0.60945591     0.62540
F1059       F  0.24445874  0.65079083  0.46198306    -0.22630
F1060       F  0.25788955  0.69971846  0.45156367    -0.19960
F1061       F  0.20765725  0.66198062  0.44715697    -0.19640
F1062       F  0.24221302  0.66650807  0.62250954    -0.19690
F1063       F  0.19995312  0.67206298  0.62278248    -0.20010
F1064       F  0.24739212  0.71377302  0.61918992    -0.22690
C1065       C  0.39342941  0.92362438  0.36623346    -0.05520
C1066       C  0.36657376  0.92430245  0.35671743     0.00400
C1067       C  0.36471295  0.93412311  0.32420134    -0.08170
C1068       C  0.39072866  0.94492982  0.30315818    -0.05550
C1069       C  0.41792789  0.94486551  0.31280840     0.00390
C1070       C  0.41892278  0.93301255  0.34464301    -0.08080
C1071       C  0.44643802  0.93005534  0.35598894     0.62300
H1072       H  0.39400152  0.91510565  0.39087918     0.13000
H1073       H  0.38979237  0.95322269  0.27850843     0.13010
C1074       C  0.33508385  0.93199454  0.31116175     0.62540
F1075       F  0.44336478  0.92011465  0.38867597    -0.22630
F1076       F  0.47343111  0.95843796  0.35377160    -0.19960
F1077       F  0.44891006  0.90860823  0.33618031    -0.19640
F1078       F  0.32979090  0.95354817  0.32705529    -0.19690
F1079       F  0.31025267  0.90250204  0.31667158    -0.20010
F1080       F  0.33666017  0.93770102  0.27727490    -0.22690
C1081       C  0.31549068  0.82640795  0.43477245    -0.05520
C1082       C  0.29562317  0.83872344  0.43262331     0.00400
C1083       C  0.26515407  0.82121408  0.44569573    -0.08170
C1084       C  0.25820414  0.79590322  0.46630671    -0.05550
C1085       C  0.27845928  0.78407448  0.46958228     0.00390
C1086       C  0.30645678  0.79813909  0.45087203    -0.08080
C1087       C  0.32796120  0.78490205  0.44780672     0.62300
H1088       H  0.33855553  0.83910274  0.42419265     0.13000
H1089       H  0.23671149  0.78558803  0.48017517     0.13010
C1090       C  0.23900113  0.82766133  0.43843103     0.62540
F1091       F  0.33891036  0.78849294  0.41549046    -0.22630
F1092       F  0.31311356  0.75354171  0.45478580    -0.19960
F1093       F  0.35295142  0.80064741  0.46907411    -0.19640
F1094       F  0.24570423  0.84819557  0.41238793    -0.19690
F1095       F  0.23255773  0.83930604  0.46672036    -0.20010
F1096       F  0.21267518  0.80016969  0.42954318    -0.22690
C1097       C  0.26989919  0.92433994  0.45698360    -0.05520
C1098       C  0.29950209  0.94070148  0.44186858     0.00400
C1099       C  0.31686096  0.97346390  0.44688204    -0.08170
C1100       C  0.30296111  0.98779386  0.46458583    -0.05550
C1101       C  0.27557921  0.97095116  0.48345907     0.00390
C1102       C  0.25975092  0.93807097  0.48084036    -0.08080
C1103       C  0.23476000  0.91607328  0.50461925     0.62300
H1104       H  0.25558711  0.89959269  0.45280462     0.13000
H1105       H  0.31508165  0.51282568  0.46565003     0.13010
C1106       C  0.35051758  0.99401431  0.43641770     0.62540
F1107       F  0.24025095  0.89236966  0.51354694    -0.22630
F1108       F  0.20609928  0.90307511  0.48924011    -0.19960
F1109       F  0.23440952  0.93059426  0.53370823    -0.19640
F1110       F  0.35183966  0.00315628  0.40368764    -0.19690
F1111       F  0.36713818  0.97879836  0.44040230    -0.20010
F1112       F  0.36511405  0.52058871  0.45589102    -0.22690
C1113       C  0.47102864  0.67565448  0.57703827    -0.05520
C1114       C  0.45401195  0.64936955  0.55694711     0.00400
C1115       C  0.45727777  0.65199766  0.52193579    -0.08170
C1116       C  0.47758335  0.68106880  0.50836328    -0.05550
C1117       C  0.49644848  0.70730926  0.52814986     0.00390
C1118       C  0.49253412  0.70475241  0.56351661    -0.08080
C1119       C  0.00990836  0.73064826  0.58871985     0.62300
H1120       H  0.46809242  0.67313691  0.60383723     0.13000
H1121       H  0.47941023  0.68338763  0.48154483     0.13010
C1122       C  0.44048092  0.62413666  0.49870944     0.62540
F1123       F  0.98900048  0.73663160  0.60506363    -0.22630
F1124       F  0.03258222  0.75793825  0.57494369    -0.19960
F1125       F  0.02400946  0.72120269  0.61194184    -0.19640
F1126       F  0.40914614  0.61406288  0.49841388    -0.19690
F1127       F  0.44504757  0.60022567  0.50909716    -0.20010
F1128       F  0.45108617  0.63131238  0.46624467    -0.22690
C1129       C  0.34184886  0.56255690  0.53556554    -0.05520
C1130       C  0.35229370  0.55078090  0.56157448     0.00400
C1131       C  0.33179658  0.51970814  0.57208585    -0.08170
C1132       C  0.30651024  0.50047628  0.55170215    -0.05550
C1133       C  0.29545488  0.51259390  0.52721345     0.00390
C1134       C  0.31343553  0.54446706  0.51899766    -0.08080
C1135       C  0.30564091  0.56031921  0.49132312     0.62300
H1136       H  0.35617431  0.58583729  0.52645458     0.13000
H1137       H  0.29351326  0.97576696  0.55700581     0.13010
C1138       C  0.33297983  0.00633302  0.60580847     0.62540
F1139       F  0.30153971  0.58354521  0.50503767    -0.22630
F1140       F  0.27928520  0.54048773  0.47358303    -0.19960
F1141       F  0.33001299  0.57360464  0.46896051    -0.19640
F1142       F  0.35142217  0.52919459  0.62844781    -0.19690
F1143       F  0.34331330  0.98535681  0.60195232    -0.20010
F1144       F  0.30353810  0.99059327  0.61942786    -0.22690
C1145       C  0.42067242  0.86082566  0.65196627    -0.05520
C1146       C  0.44069467  0.85625123  0.63106389     0.00400
C1147       C  0.47274346  0.87967386  0.63080867    -0.08170
C1148       C  0.48370746  0.90364555  0.65477490    -0.05550
C1149       C  0.46351856  0.90803890  0.67548045     0.00390
C1150       C  0.43096887  0.88769370  0.67152159    -0.08080
C1151       C  0.40665483  0.89477516  0.68536088     0.62300
H1152       H  0.39632288  0.84342123  0.65251611     0.13000
H1153       H  0.00840432  0.91981652  0.65655266     0.13010
C1154       C  0.49581267  0.88141033  0.60493270     0.62540
F1155       F  0.37779475  0.87591000  0.67112865    -0.22630
F1156       F  0.41496565  0.92516957  0.67817157    -0.19960
F1157       F  0.40353693  0.89018367  0.71936565    -0.19640
F1158       F  0.98161244  0.87026914  0.57441515    -0.19690
F1159       F  0.50960453  0.86483796  0.61576135    -0.20010
F1160       F  0.01902275  0.91189160  0.59999919    -0.22690
C1161       C  0.11703027  0.53855777  0.68282808    -0.05520
C1162       C  0.08967356  0.53901048  0.67556208     0.00400
C1163       C  0.08757870  0.55201777  0.64481379    -0.08170
C1164       C  0.11299911  0.56391853  0.62273865    -0.05550
C1165       C  0.14043351  0.56388531  0.63065428     0.00390
C1166       C  0.14290621  0.55183697  0.66170216    -0.08080
C1167       C  0.17307681  0.55419180  0.67349812     0.62300
H1168       H  0.11830605  0.52792222  0.70563710     0.13000
H1169       H  0.11170370  0.57342436  0.59894421     0.13010
C1170       C  0.05838409  0.55220460  0.63448352     0.62540
F1171       F  0.17226144  0.54789840  0.70713873    -0.22630
F1172       F  0.19758783  0.58394449  0.66832313    -0.19960
F1173       F  0.17846572  0.53313719  0.65662491    -0.19640
F1174       F  0.05388318  0.57207864  0.65481255    -0.19690
F1175       F  0.03328626  0.52250486  0.63691553    -0.20010
F1176       F  0.05991279  0.56196700  0.60191299    -0.22690
C1177       C  0.46017804  0.55729735  0.68100833    -0.05520
C1178       C  0.46328370  0.53154132  0.67252023     0.00400
C1179       C  0.45658930  0.52002638  0.63915460    -0.08170
C1180       C  0.44673345  0.53473871  0.61613524    -0.05550
C1181       C  0.44397737  0.56058178  0.62488335     0.00390
C1182       C  0.44996886  0.57157098  0.65817253    -0.08080
C1183       C  0.44425444  0.59733717  0.67021050     0.62300
H1184       H  0.46549224  0.56612284  0.70625192     0.13000
H1185       H  0.44133221  0.52607806  0.59076718     0.13010
C1186       C  0.45988252  0.49328618  0.62545339     0.62540
F1187       F  0.44660971  0.60065996  0.70451788    -0.22630
F1188       F  0.41471897  0.59067668  0.66125926    -0.19960
F1189       F  0.46580847  0.62537868  0.65641503    -0.19640
F1190       F  0.43089899  0.96905286  0.61699134    -0.19690
F1191       F  0.97350662  0.48228394  0.64719450    -0.20010
F1192       F  0.47800075  0.50298881  0.59703173    -0.22690
C1193       C  0.04786766  0.60706469  0.12957967    -0.05520
C1194       C  0.07666225  0.63335925  0.13740377     0.00400
C1195       C  0.09303216  0.63225969  0.16599590    -0.08170
C1196       C  0.08077556  0.60440218  0.18427946    -0.05550
C1197       C  0.05159662  0.57878888  0.17701170     0.00390
C1198       C  0.03457902  0.58020821  0.14951481    -0.08080
C1199       C  0.50246513  0.55348459  0.14133501     0.62300
H1200       H  0.03560990  0.60773601  0.10761585     0.13000
H1201       H  0.09327739  0.60323765  0.20583874     0.13010
C1202       C  0.12261517  0.65994352  0.17912109     0.62540
F1203       F  0.49116968  0.55817441  0.11172108    -0.22630
F1204       F  0.48214372  0.55043884  0.16642374    -0.19960
F1205       F  0.50333876  0.52622811  0.13843610    -0.19640
F1206       F  0.12627797  0.68794829  0.16828897    -0.19690
F1207       F  0.14783828  0.65738725  0.16925659    -0.20010
F1208       F  0.12204246  0.66050122  0.21354858    -0.22690
C1209       C  0.17677211  0.73721796  0.04746026    -0.05520
C1210       C  0.15992691  0.70592407  0.05765605     0.00400
C1211       C  0.16980123  0.68529704  0.04620844    -0.08170
C1212       C  0.19738919  0.69764858  0.02812200    -0.05550
C1213       C  0.21217186  0.72778139  0.01425291     0.00390
C1214       C  0.20021234  0.74757592  0.02312831    -0.08080
C1215       C  0.20806678  0.77809031  0.00659049     0.62300
H1216       H  0.16934492  0.75317114  0.05596066     0.13000
H1217       H  0.20649351  0.68245891  0.02353429     0.13010
C1218       C  0.15107812  0.65004173  0.04998108     0.62540
F1219       F  0.18090749  0.77670058  0.99615006    -0.22630
F1220       F  0.22659225  0.78475161  0.97897303    -0.19960
F1221       F  0.22249129  0.80207963  0.02937071    -0.19640
F1222       F  0.11973046  0.63911255  0.04567855    -0.19690
F1223       F  0.15643751  0.64148430  0.08088792    -0.20010
F1224       F  0.15944449  0.63537170  0.02615611    -0.22690
C1225       C  0.04624032  0.71672946  0.07752153    -0.05520
C1226       C  0.05885466  0.70179420  0.05901662     0.00400
C1227       C  0.05199544  0.69618141  0.02469581    -0.08170
C1228       C  0.03506773  0.70828757  0.00966542    -0.05550
C1229       C  0.02000297  0.72110310  0.02808967     0.00390
C1230       C  0.02554056  0.72507509  0.06325724    -0.08080
C1231       C  0.01019815  0.73658196  0.08763507     0.62300
H1232       H  0.05165567  0.72074041  0.10387296     0.13000
H1233       H  0.03210194  0.70613015  0.98290440     0.13010
C1234       C  0.06035194  0.67558650  0.00414762     0.62540
F1235       F  0.99858004  0.71636629  0.11432570    -0.22630
F1236       F  0.98583267  0.73844880  0.07412306    -0.19960
F1237       F  0.03206876  0.76557258  0.09945805    -0.19640
F1238       F  0.05339940  0.64901594  0.02180735    -0.19690
F1239       F  0.09150164  0.69128101  0.99621094    -0.20010
F1240       F  0.04371302  0.66624341  0.97460779    -0.22690
C1241       C  0.20868175  0.94983739  0.02589713    -0.05520
C1242       C  0.21863193  0.98123544  0.01941556     0.00400
C1243       C  0.20210767  0.99448901  0.03470677    -0.08170
C1244       C  0.17356071  0.97468354  0.05021278    -0.05550
C1245       C  0.16386945  0.94332657  0.05641432     0.00390
C1246       C  0.18428735  0.93236725  0.04786697    -0.08080
C1247       C  0.18338438  0.90434482  0.06362201     0.62300
H1248       H  0.22048456  0.93880112  0.01479142     0.13000
H1249       H  0.15896374  0.98400657  0.05776501     0.13010
C1250       C  0.21357688  0.52910462  0.03516728     0.62540
F1251       F  0.17500381  0.88121591  0.04012633    -0.22630
F1252       F  0.16350217  0.89336830  0.09052100    -0.19960
F1253       F  0.21259941  0.91257021  0.07535398    -0.19640
F1254       F  0.20071527  0.53670821  0.00890181    -0.19690
F1255       F  0.24556999  0.54633328  0.03340352    -0.20010
F1256       F  0.20499854  0.53729315  0.06460638    -0.22690
C1257       C  0.04992576  0.79205690  0.02644220    -0.05520
C1258       C  0.01814914  0.78204924  0.02615628     0.00400
C1259       C  0.00827667  0.80200775  0.04028331    -0.08170
C1260       C  0.03069566  0.83143946  0.05191806    -0.05550
C1261       C  0.06227077  0.84057420  0.05451675     0.00390
C1262       C  0.07166669  0.81942580  0.04280499    -0.08080
C1263       C  0.10390885  0.82421655  0.04688418     0.62300
H1264       H  0.05806518  0.77834527  0.01361290     0.13000
H1265       H  0.02317892  0.84759239  0.05925246     0.13010
C1266       C  0.47459842  0.79403772  0.04244331     0.62540
F1267       F  0.10298946  0.79597326  0.04928412    -0.22630
F1268       F  0.11758612  0.84046347  0.07569560    -0.19960
F1269       F  0.12140920  0.83959843  0.01930944    -0.19640
F1270       F  0.45486832  0.76260576  0.04612503    -0.19690
F1271       F  0.46658359  0.80425502  0.01419912    -0.20010
F1272       F  0.47014836  0.80831521  0.06985837    -0.22690
C1273       C  0.07118915  0.94285409  0.18690225    -0.05520
C1274       C  0.04881171  0.94996565  0.17537291     0.00400
C1275       C  0.04086315  0.94603108  0.14108024    -0.08170
C1276       C  0.05489213  0.93398282  0.11982571    -0.05550
C1277       C  0.07633792  0.92581665  0.13184419     0.00390
C1278       C  0.08431858  0.92981852  0.16595642    -0.08080
C1279       C  0.10584335  0.91941869  0.18024894     0.62300
H1280       H  0.07825533  0.94740290  0.21270742     0.13000
H1281       H  0.04931858  0.93090359  0.09350539     0.13010
C1282       C  0.01913732  0.95614693  0.12670116     0.62540
F1283       F  0.10859612  0.92303015  0.21450884    -0.22630
F1284       F  0.13507051  0.93664195  0.16654777    -0.19960
F1285       F  0.09431428  0.88831111  0.17303295    -0.19640
F1286       F  0.02929720  0.48659377  0.13535791    -0.19690
F1287       F  0.98949408  0.93757134  0.13892298    -0.20010
F1288       F  0.01773254  0.95404808  0.09228021    -0.22690
C1289       C  0.08076168  0.53143739  0.85317611    -0.05520
C1290       C  0.08875046  0.53232982  0.81947238     0.00400
C1291       C  0.12038107  0.54622406  0.81051090    -0.08170
C1292       C  0.14315778  0.55954459  0.83536176    -0.05550
C1293       C  0.13542678  0.55899569  0.86894542     0.00390
C1294       C  0.10374463  0.54447768  0.87833140    -0.08080
C1295       C  0.09433294  0.54213620  0.91461917     0.62300
H1296       H  0.05642008  0.52067100  0.85956352     0.13000
H1297       H  0.16747447  0.57029266  0.82882610     0.13010
C1298       C  0.12995341  0.54584099  0.77488795     0.62540
F1299       F  0.06246374  0.52481377  0.91848193    -0.22830
F1300       F  0.10429760  0.57144413  0.92748634    -0.19960
F1301       F  0.10746401  0.52800622  0.93273304    -0.19640
F1302       F  0.12083737  0.56255027  0.75508834    -0.19690
F1303       F  0.11603021  0.51537454  0.76396180    -0.20010
F1304       F  0.16174305  0.55884879  0.77177667    -0.22690
C1305       C  0.20270855  0.66679422  0.92849371    -0.05520
C1306       C  0.21096452  0.64649339  0.94366768     0.00400
C1307       C  0.23097349  0.65787076  0.97208644    -0.08170
C1308       C  0.24531220  0.68975036  0.97993743    -0.05550
C1309       C  0.23302297  0.70801223  0.96829268     0.00390
C1310       C  0.20996692  0.69537038  0.94285458    -0.08080
C1311       C  0.19106911  0.70945073  0.93003078     0.62300
H1312       H  0.18849833  0.65971369  0.90628434     0.13000
H1313       H  0.26163592  0.69861622  0.00051344     0.13010
C1314       C  0.23402120  0.63737280  0.99821759     0.62540
F1315       F  0.19733379  0.71649634  0.89660862    -0.22630
F1316       F  0.19661513  0.73584374  0.94664364    -0.19960
F1317       F  0.15984214  0.68798987  0.93351638    -0.19640
F1318       F  0.26224457  0.63865727  0.99475193    -0.19690
F1319       F  0.21012677  0.60688100  0.99648430    -0.20010
F1320       F  0.23286004  0.64790078  0.02986404    -0.22690
C1321       C  0.20000451  0.51881409  0.93166818    -0.05520
C1322       C  0.21996165  0.55088465  0.92690067     0.00400
C1323       C  0.25100872  0.56405633  0.93830894    -0.08170
C1324       C  0.25793084  0.54758335  0.96179003    -0.05550
C1325       C  0.23742439  0.51579963  0.96784481     0.00390
C1326       C  0.20937249  0.50061946  0.94924650    -0.08080
C1327       C  0.18809718  0.96565175  0.94821383     0.62300
H1328       H  0.17637851  0.50759201  0.92261364     0.13000
H1329       H  0.27989263  0.55972319  0.97479161     0.13010
C1330       C  0.27784269  0.59400152  0.92500191     0.62540
F1331       F  0.16484529  0.95690573  0.97160476    -0.22630
F1332       F  0.20404008  0.45007861  0.95394236    -0.19960
F1333       F  0.17455125  0.95656476  0.91703477    -0.19640
F1334       F  0.28994933  0.61610063  0.95002507    -0.19690
F1335       F  0.26925871  0.60556920  0.89828281    -0.20010
F1336       F  0.30087990  0.58833158  0.91404323    -0.22690
C1337       C  0.37345664  0.90922822  0.14803151    -0.05520
C1338       C  0.37347924  0.92912774  0.12333912     0.00400
C1339       C  0.39926211  0.95980714  0.12135741    -0.08170
C1340       C  0.42188747  0.97033527  0.14668229    -0.05550
C1341       C  0.42175968  0.95050604  0.17171260     0.00390
C1342       C  0.39763680  0.91866377  0.17127901    -0.08080
C1343       C  0.39662563  0.89418085  0.19486014     0.62300
H1344       H  0.35378370  0.88587978  0.14924081     0.13000
H1345       H  0.44055092  0.99422607  0.14609913     0.13010
C1346       C  0.40476592  0.98194578  0.09274857     0.62540
F1347       F  0.37149208  0.86492765  0.18867725    -0.22630
F1348       F  0.39433481  0.90181523  0.22748514    -0.19960
F1349       F  0.42306917  0.89200496  0.19083144    -0.19640
F1350       F  0.39691967  0.00377393  0.10265120    -0.19690
F1351       F  0.38810923  0.96677564  0.06450768    -0.20010
F1352       F  0.43579274  0.49729666  0.08401321    -0.22690
C1353       C  0.28484391  0.81637095  0.06738059    -0.05520
C1354       C  0.29561792  0.84435957  0.04984802     0.00400
C1355       C  0.29827041  0.84426238  0.01473384    -0.08170
C1356       C  0.28758974  0.81596896  0.99833882    -0.05550
C1357       C  0.27544401  0.78766481  0.01535241     0.00390
C1358       C  0.27579574  0.78799989  0.05078031    -0.08080
C1359       C  0.26872812  0.76021287  0.07231971     0.62300
H1360       H  0.28430818  0.81685007  0.09437084     0.13000
H1361       H  0.28838223  0.81571299  0.97138426     0.13010
C1362       C  0.31073227  0.87329806  0.99364946     0.62540
F1363       F  0.29315179  0.76827730  0.09411052    -0.22630
F1364       F  0.26469270  0.73480682  0.05425066    -0.19960
F1365       F  0.24216421  0.75178449  0.09060379    -0.19640
F1366       F  0.33563132  0.89830391  0.00895553    -0.19690
F1367       F  0.28707556  0.87955698  0.98840216    -0.20010
F1368       F  0.32083463  0.86930007  0.96286783    -0.22690
C1369       C  0.29820374  0.94324318  0.02222257    -0.05520
C1370       C  0.29563871  0.94265490  0.05692893     0.00400
C1371       C  0.28351234  0.95989084  0.07251528    -0.08170
C1372       C  0.27554502  0.97814325  0.05230174    -0.05550
C1373       C  0.27754212  0.97785211  0.01721660     0.00390
C1374       C  0.28687841  0.95807815  0.00209758    -0.08080
C1375       C  0.28440150  0.95115558  0.96497135     0.62300
H1376       H  0.30841426  0.93095807  0.01050598     0.13000
H1377       H  0.26779324  0.99279046  0.06373112     0.13010
C1378       C  0.27868820  0.95882119  0.10989242     0.62540
F1379       F  0.27748750  0.92092494  0.95931814    -0.22630
F1380       F  0.31232678  0.97086430  0.94968098    -0.19960
F1381       F  0.26079537  0.95391844  0.95044789    -0.19640
F1382       F  0.30699020  0.97401494  0.12599717    -0.19690
F1383       F  0.26250918  0.92829663  0.12053536    -0.20010
F1384       F  0.26192952  0.97300527  0.11899075    -0.22690
C1385       C  0.43974012  0.85282787  0.83266554    -0.05520
C1386       C  0.43668947  0.85970521  0.86577530     0.00400
C1387       C  0.44654950  0.89086230  0.87506471    -0.08170
C1388       C  0.45766984  0.91387717  0.85014009    -0.05550
C1389       C  0.46085425  0.90701331  0.81694036     0.00390
C1390       C  0.45219447  0.87596601  0.80806005    -0.08080
C1391       C  0.45551592  0.86684371  0.77280030     0.62300
H1392       H  0.43264129  0.82897926  0.82639292     0.13000
H1393       H  0.46483399  0.93770993  0.85657326     0.13010
C1394       C  0.44685341  0.90010574  0.91124678     0.62540
F1395       F  0.44238394  0.83500063  0.76918190    -0.22630
F1396       F  0.48652679  0.88037200  0.76449634    -0.19960
F1397       F  0.44080609  0.87643278  0.75079744    -0.19640
F1398       F  0.46259526  0.88940993  0.93047446    -0.19690
F1399       F  0.41689688  0.88764559  0.92295441    -0.20010
F1400       F  0.46148632  0.93204847  0.91513517    -0.22690
C1401       C  0.32986798  0.77876242  0.92663616    -0.05520
C1402       C  0.35587021  0.78830153  0.94710137     0.00400
C1403       C  0.35192823  0.78558310  0.98212423    -0.08170
C1404       C  0.32170234  0.77135132  0.99495571    -0.05550
C1405       C  0.29576851  0.76428509  0.97487176     0.00390
C1406       C  0.30028486  0.76905244  0.93981788    -0.08080
C1407       C  0.27589539  0.76618587  0.91526215     0.62300
H1408       H  0.33313409  0.78064604  0.89985653     0.13000
H1409       H  0.31853447  0.76839200  0.02165919     0.13010
C1410       C  0.37902134  0.79992754  0.00651359     0.62540
F1411       F  0.28923122  0.78874520  0.89085182    -0.22630
F1412       F  0.25340849  0.77028915  0.93019724    -0.19960
F1413       F  0.26257504  0.73737301  0.90006837    -0.19640
F1414       F  0.40345795  0.82699932  0.99382269    -0.19690
F1415       F  0.38892666  0.77908729  0.01343735    -0.20010
F1416       F  0.37037749  0.80762977  0.03623521    -0.22690
C1417       C  0.43584039  0.75185710  0.94521484    -0.05520
C1418       C  0.45227788  0.78254661  0.93304512     0.00400
C1419       C  0.48477857  0.80016955  0.93958220    -0.08170
C1420       C  0.49794915  0.78689059  0.96000500    -0.05550
C1421       C  0.47974012  0.75978020  0.97872167     0.00390
C1422       C  0.44752950  0.74187595  0.97122372    -0.08080
C1423       C  0.42344888  0.71413612  0.99082513     0.62300
H1424       H  0.41170239  0.73719782  0.93824512     0.13000
H1425       H  0.02279741  0.79918168  0.96386532     0.13010
C1426       C  0.00596853  0.83311843  0.92712452     0.62540
F1427       F  0.39938153  0.71910192  0.99953025    -0.22630
F1428       F  0.43478866  0.70906229  0.01990021    -0.19960
F1429       F  0.41161504  0.68773424  0.97117580    -0.19640
F1430       F  0.99389825  0.85198500  0.93515932    -0.19690
F1431       F  0.50985184  0.83273334  0.89308558    -0.20010
F1432       F  0.03521292  0.84649342  0.94138008    -0.22690
C1433       C  0.44906798  0.64366433  0.97360399    -0.05520
C1434       C  0.45089621  0.64891813  0.93926635     0.00400
C1435       C  0.46697813  0.67956558  0.92703311    -0.08170
C1436       C  0.48140606  0.70415870  0.95013124    -0.05550
C1437       C  0.47758369  0.69907801  0.98489416     0.00390
C1438       C  0.46058198  0.66791236  0.99667910    -0.08080
C1439       C  0.45367306  0.65822249  0.03297896     0.62300
H1440       H  0.43680627  0.61989522  0.98258331     0.13000
H1441       H  0.49625584  0.72750581  0.94108162     0.13010
C1442       C  0.46849209  0.68615772  0.89004012     0.62540
F1443       F  0.42266789  0.63597486  0.03639621    -0.22630
F1444       F  0.45912047  0.68224158  0.05401506    -0.19960
F1445       F  0.47153109  0.64557655  0.04306243    -0.19640
F1446       F  0.43878468  0.67264008  0.87707860    -0.19690
F1447       F  0.48467327  0.67410067  0.87396371    -0.20010
F1448       F  0.48320202  0.71772498  0.88364502    -0.22690
C1449       C  0.35531792  0.55579683  0.97117281    -0.05520
C1450       C  0.35378464  0.55358316  0.93633934     0.00400
C1451       C  0.32464875  0.53634783  0.92045907    -0.08170
C1452       C  0.29806956  0.51992018  0.94046156    -0.05550
C1453       C  0.29982747  0.52136102  0.97556955     0.00390
C1454       C  0.32874004  0.54150379  0.99094003    -0.08080
C1455       C  0.33239997  0.54904370  0.02792678     0.62300
H1456       H  0.37772680  0.56975704  0.98304409     0.13000
H1457       H  0.27581459  0.50535358  0.92874236     0.13010
C1458       C  0.32156822  0.53567781  0.88282692     0.62540
F1459       F  0.33978118  0.52924033  0.04444085    -0.22630
F1460       F  0.30570668  0.54664904  0.04126349    -0.19960
F1461       F  0.35600511  0.57928955  0.03331889    -0.19640
F1462       F  0.33517961  0.52002324  0.86886021    -0.19690
F1463       F  0.33594466  0.56570491  0.87065778    -0.20010
F1464       F  0.29081248  0.52086644  0.87288050    -0.22690
C1465       C  0.42413548  0.54855580  0.83741264    -0.05520
C1466       C  0.44110089  0.56216568  0.86651601     0.00400
C1467       C  0.46935959  0.56240721  0.87201984    -0.08170
C1468       C  0.48054876  0.55080408  0.84682813    -0.05550
C1469       C  0.46343870  0.53695426  0.81763477     0.00390
C1470       C  0.43427250  0.53538097  0.81307526    -0.08080
C1471       C  0.41372956  0.52052507  0.78266342     0.62300
H1472       H  0.40256492  0.54851576  0.83383900     0.13000
H1473       H  0.00256167  0.55173401  0.85045724     0.13010
C1474       C  0.48797754  0.57401223  0.90407219     0.62540
F1475       F  0.38834600  0.52484953  0.78221180    -0.22630
F1476       F  0.40255792  0.98885209  0.78266798    -0.19960
F1477       F  0.43042508  0.53351954  0.75390971    -0.19640
F1478       F  0.46964495  0.57210379  0.93085048    -0.19690
F1479       F  0.51127771  0.60451053  0.90003782    -0.20010
F1480       F  0.00141654  0.55625456  0.91178638    -0.22690
C1481       C  0.92822253  0.07638995  0.88935047     0.03390
C1482       C  0.94585590  0.10771293  0.89924017    -0.12760
C1483       C  0.93215220  0.12123493  0.91839146     0.00890
C1484       C  0.90046545  0.10410080  0.92548390    -0.11290
C1485       C  0.88331816  0.07240476  0.91825848     0.03380
C1486       C  0.89727943  0.05855624  0.90020080    -0.10710
H1487       H  0.97028309  0.12094643  0.89335978     0.08970
H1488       H  0.89014268  0.11449536  0.94088203     0.06500
H1489       H  0.88462543  0.03377296  0.89553181     0.06350
C1490       C  0.92500840  0.33394290  0.89024207     0.03390
C1491       C  0.94182206  0.31860930  0.89615865    -0.12760
C1492       C  0.93297630  0.29634310  0.92161201     0.00890
C1493       C  0.90480354  0.28731946  0.93822372    -0.11290
C1494       C  0.88648678  0.30041693  0.93073832     0.03380
C1495       C  0.89679049  0.32396208  0.90674924    -0.10710
H1496       H  0.96179221  0.32457918  0.88099690     0.08970
H1497       H  0.89654878  0.26955857  0.95709786     0.06500
H1498       H  0.88271371  0.33425928  0.90070067     0.06350
C1499       C  0.84543984  0.41664516  0.10146977     0.03390
C1500       C  0.83089589  0.43410271  0.09463483    -0.12760
C1501       C  0.80435253  0.42183427  0.07439019     0.00890
C1502       C  0.79088396  0.39090537  0.06326495    -0.11290
C1503       C  0.80567478  0.37366685  0.06858760     0.03380
C1504       C  0.83273172  0.38650610  0.08790247    -0.10710
H1505       H  0.84140356  0.45782573  0.10323409     0.08970
H1506       H  0.77050664  0.38137461  0.04744336     0.06500
H1507       H  0.84454131  0.37339790  0.09133659     0.06350
C1508       C  0.66159785  0.07181934  0.89310896     0.03390
C1509       C  0.67100665  0.09996756  0.90984332    -0.12760
C1510       C  0.69899024  0.11468903  0.92839302     0.00890
C1511       C  0.71629680  0.09951264  0.93057948    -0.11290
C1512       C  0.70598994  0.07008364  0.91632740     0.03380
C1513       C  0.67936944  0.05732013  0.89613527    -0.10710
H1514       H  0.65674842  0.11054048  0.90733445     0.08970
H1515       H  0.73757719  0.11032631  0.94436113     0.06500
H1516       H  0.67206213  0.03579279  0.88277638     0.06350
C1517       C  0.59018197  0.41350592  0.10788131     0.03390
C1518       C  0.57269848  0.38300172  0.09597046    -0.12760
C1519       C  0.58349645  0.37211539  0.06955220     0.00890
C1520       C  0.61290705  0.39270857  0.05601006    -0.11290
C1521       C  0.63205209  0.42247582  0.06996517     0.03380
C1522       C  0.62003558  0.43287491  0.09538239    -0.10710
H1523       H  0.55015678  0.36803985  0.10694429     0.08970
H1524       H  0.62090341  0.38602146  0.03425431     0.06500
H1525       H  0.63373306  0.45615745  0.10537875     0.06350
C1526       C  0.77229951  0.49974428  0.99622248     0.00820
C1527       C  0.74436303  0.49914247  0.99479758     0.00820
C1528       C  0.58910258  0.16029587  0.11383940     0.03390
C1529       C  0.56947625  0.17063864  0.10093949    -0.12760
C1530       C  0.57989863  0.19303824  0.07561780     0.00890
C1531       C  0.61015021  0.20575881  0.06386852    -0.11290
C1532       C  0.62983684  0.19522842  0.07525894     0.03380
C1533       C  0.61943164  0.17323702  0.10109580    -0.10710
H1534       H  0.54582102  0.16056836  0.10973586     0.08970
H1535       H  0.61772020  0.22298046  0.04431184     0.06500
H1536       H  0.63458207  0.16555316  0.11075288     0.06350
C1537       C  0.49676228  0.22577621  0.00821809     0.00820
C1538       C  0.49656834  0.25349124  0.00615565     0.00820
C1539       C  0.76776942  0.26025886  0.99356669     0.00820
C1540       C  0.73835999  0.23497279  0.99005628     0.00820
O1541       O  0.50601809  0.45166865  0.70318261    -0.85090
O1542       O  0.56194879  0.50412080  0.71980158    -0.82140
C1543       C  0.56447402  0.02566821  0.70105450     0.98370
O1544       O  0.54691662  0.03676996  0.70530043    -0.82170
O1545       O  0.49414690  0.03783823  0.72002880    -0.84820
C1546       C  0.97389913  0.01884151  0.69987432     1.02900
O1547       O  0.96142221  0.48994268  0.70470973    -0.77580
O1548       O  0.95940608  0.43538002  0.72204116    -0.77770
C1549       C  0.97704264  0.43340653  0.70099170     1.02850
O1550       O  0.49457685  0.43564896  0.77256256    -0.85090
O1551       O  0.54724008  0.49097306  0.78930698    -0.82150
C1552       C  0.56408008  0.01993109  0.79373500     0.98390
O1553       O  0.56117758  0.03892091  0.77529769    -0.82180
O1554       O  0.50563471  0.03573857  0.79026603    -0.84790
C1555       C  0.97670275  0.02452656  0.79269764     1.02860
O1556       O  0.95871954  0.50292306  0.77343224    -0.77610
O1557       O  0.96306640  0.45118583  0.79067839    -0.77750
C1558       C  0.97357716  0.43276177  0.79237319     1.02820
Cr1559     Cr  0.52582920  0.47228540  0.74628099     1.93740
Cr1560     Cr  0.52535042  0.03395517  0.74780044     1.93210
Cr1561     Cr  0.96402767  0.47165522  0.74777237     1.39100
O1562       O  0.50515653  0.49273102  0.74738826    -1.22840
C1563       C  0.93181408  0.07389216  0.60002517     0.03390
C1564       C  0.90147268  0.05589400  0.58794282    -0.12760
C1565       C  0.88548289  0.06989703  0.57374880     0.00890
C1566       C  0.90277882  0.10229916  0.56825841    -0.11290
C1567       C  0.93495520  0.11881250  0.57294029     0.03380
C1568       C  0.94925917  0.10495075  0.59018733    -0.10710
H1569       H  0.89056539  0.03115207  0.59076627     0.08970
H1570       H  0.89218149  0.11500432  0.55859275     0.06500
H1571       H  0.97384365  0.11818498  0.59574143     0.06350
C1572       C  0.84036009  0.41205806  0.38098634     0.03390
C1573       C  0.83046179  0.43134493  0.39591275    -0.12760
C1574       C  0.81137744  0.42158485  0.42458920     0.00890
C1575       C  0.80262522  0.39195768  0.43737152    -0.11290
C1576       C  0.80829050  0.37089227  0.41989343     0.03380
C1577       C  0.82778268  0.38138614  0.39204773    -0.10710
H1578       H  0.83857646  0.45401529  0.38573034     0.08970
H1579       H  0.79051387  0.38466599  0.46091013     0.06500
H1580       H  0.83398569  0.36602002  0.37935392     0.06350
C1581       C  0.66636956  0.07701745  0.60634490     0.03390
C1582       C  0.67894809  0.10773191  0.59483604    -0.12760
C1583       C  0.70456977  0.12054215  0.57319409     0.00890
C1584       C  0.71731513  0.10217127  0.56321964    -0.11290
C1585       C  0.70318427  0.07088676  0.57203943     0.03380
C1586       C  0.67767628  0.05833710  0.59346533    -0.10710
H1587       H  0.66801122  0.12096726  0.60179968     0.08970
H1588       H  0.73691948  0.11159674  0.54632865     0.06500
H1589       H  0.66608283  0.03379636  0.59925411     0.06350
C1590       C  0.58782877  0.41720568  0.39203720     0.03390
C1591       C  0.61725126  0.43555743  0.40678795    -0.12760
C1592       C  0.62871826  0.42244449  0.42970472     0.00890
C1593       C  0.61013688  0.39110162  0.43823833    -0.11290
C1594       C  0.58077059  0.37219885  0.42416912     0.03380
C1595       C  0.57045592  0.38524922  0.39992443    -0.10710
H1596       H  0.63092085  0.45978653  0.40061445     0.08970
H1597       H  0.61848870  0.38163420  0.45723695     0.06500
H1598       H  0.54880068  0.37076244  0.38729507     0.06350
C1599       C  0.52003547  0.23512425  0.50879900     0.00820
C1600       C  0.51920538  0.26250670  0.50696084     0.00820
C1601       C  0.76788751  0.48957838  0.50776739     0.00820
C1602       C  0.73895594  0.48682504  0.51162501     0.00820
C1603       C  0.58726421  0.15433738  0.38576395     0.03390
C1604       C  0.56928013  0.16675565  0.39812309    -0.12760
C1605       C  0.58274916  0.19313001  0.41869117     0.00890
C1606       C  0.61444544  0.20734588  0.42608441    -0.11290
C1607       C  0.63178169  0.19320241  0.41771938     0.03380
C1608       C  0.61803039  0.16655518  0.39729656    -0.10710
H1609       H  0.54471766  0.15512871  0.39269896     0.08970
H1610       H  0.62472012  0.22761271  0.44224006     0.06500
H1611       H  0.63055624  0.15459631  0.39150754     0.06350
C1612       C  0.92653418  0.32829267  0.60834245     0.03390
C1613       C  0.94165391  0.31154706  0.60116115    -0.12760
C1614       C  0.93172949  0.28989000  0.57468957     0.00890
C1615       C  0.90341535  0.28183557  0.55875735    -0.11290
C1616       C  0.88489266  0.29416062  0.56978519     0.03380
C1617       C  0.89744341  0.31833134  0.59343465    -0.10710
H1618       H  0.96224515  0.31658821  0.61498565     0.08970
H1619       H  0.89582968  0.26626692  0.53757865     0.06500
H1620       H  0.88453494  0.32967671  0.60003604     0.06350
C1621       C  0.77172949  0.25952101  0.49524814     0.00820
C1622       C  0.74356405  0.23232087  0.49603877     0.00820
O1623       O  0.51571264  0.04882560  0.21874710    -0.85090
O1624       O  0.96415738  0.49289444  0.20093562    -0.82140
C1625       C  0.94677841  0.46386792  0.19764877     0.98370
O1626       O  0.94987717  0.44595733  0.21729926    -0.82170
O1627       O  0.50610462  0.45056602  0.20213676    -0.84820
C1628       C  0.53511799  0.46206567  0.20006635     1.02900
O1629       O  0.55293036  0.48269933  0.22056519    -0.77580
O1630       O  0.55036422  0.03579294  0.20489922    -0.77770
C1631       C  0.53823938  0.05262826  0.20090904     1.02850
O1632       O  0.50180352  0.03334483  0.28778192    -0.85090
O1633       O  0.94747680  0.47984256  0.26980852    -0.82150
C1634       C  0.94445531  0.45831134  0.28894450     0.98390
O1635       O  0.96285302  0.44786289  0.28650885    -0.82180
O1636       O  0.51630509  0.44625471  0.27163023    -0.84790
C1637       C  0.53656720  0.46419936  0.29214858     1.02860
O1638       O  0.54721269  0.49317236  0.29005788    -0.77610
O1639       O  0.54988037  0.04865675  0.27396973    -0.77750
C1640       C  0.53055283  0.05125018  0.29210069     1.02820
Cr1641     Cr  0.98411803  0.01209589  0.24439793     1.93740
Cr1642     Cr  0.98549645  0.45110167  0.24445604     1.93210
Cr1643     Cr  0.54668530  0.01330653  0.24723660     1.39100
O1644       O  0.50544872  0.49226828  0.24536756    -1.22840
C1645       C  0.80701158  0.24496774  0.52620124    -0.05520
C1646       C  0.79756708  0.26680831  0.51978556     0.00400
C1647       C  0.81512682  0.29678475  0.53453932    -0.08170
C1648       C  0.84425843  0.30548696  0.54837999    -0.05550
C1649       C  0.85339504  0.28347836  0.55508873     0.00390
C1650       C  0.83201896  0.25189981  0.54747456    -0.08080
C1651       C  0.83247133  0.22467401  0.56362371     0.62300
H1652       H  0.79445109  0.22190108  0.51559568     0.13000
H1653       H  0.85941023  0.32966529  0.55480249     0.13010
C1654       C  0.80382052  0.31992364  0.53721998     0.62540
F1655       F  0.80288731  0.20332393  0.57429464    -0.22630
F1656       F  0.85146644  0.23355264  0.59134830    -0.19960
F1657       F  0.84183152  0.21032434  0.54071954    -0.19640
F1658       F  0.81277886  0.33530993  0.56752772    -0.19690
F1659       F  0.77184259  0.30535323  0.53588270    -0.20010
F1660       F  0.81659088  0.34163289  0.51204163    -0.22690
C1661       C  0.66065625  0.20591321  0.47068889    -0.05520
C1662       C  0.66164659  0.20383381  0.43584385     0.00400
C1663       C  0.69085289  0.21511357  0.42013223    -0.08170
C1664       C  0.71763403  0.22600440  0.44019503    -0.05550
C1665       C  0.71620510  0.22691836  0.47517465     0.00390
C1666       C  0.68750965  0.21909121  0.49028074    -0.08080
C1667       C  0.68429516  0.22555665  0.52660380     0.62300
H1668       H  0.63850953  0.19823010  0.48275802     0.13000
H1669       H  0.73977536  0.23305612  0.42861217     0.13010
C1670       C  0.69404922  0.21473821  0.38266838     0.62540
F1671       F  0.66347668  0.23618070  0.52955399    -0.22630
F1672       F  0.71205908  0.24829663  0.53995441    -0.19960
F1673       F  0.67332795  0.19850727  0.54480896    -0.19640
F1674       F  0.67567045  0.22451359  0.36707907    -0.19690
F1675       F  0.68540502  0.18493884  0.37249607    -0.20010
F1676       F  0.72437184  0.23425693  0.37269249    -0.22690
C1677       C  0.54626690  0.10027195  0.37134843    -0.05520
C1678       C  0.57312615  0.12782872  0.36183693     0.00400
C1679       C  0.58435081  0.13059075  0.32887539    -0.08170
C1680       C  0.56925382  0.10508441  0.30717722    -0.05550
C1681       C  0.54286712  0.07720451  0.31675062     0.00390
C1682       C  0.53069657  0.07486585  0.34925160    -0.08080
C1683       C  0.00204985  0.04557910  0.36090373     0.62300
H1684       H  0.53756320  0.09888290  0.39637664     0.13000
H1685       H  0.57814004  0.10678056  0.28217352     0.13010
C1686       C  0.61190731  0.16039964  0.31619841     0.62540
F1687       F  0.99556831  0.04739755  0.39409608    -0.22630
F1688       F  0.00657942  0.02051472  0.35719211    -0.19960
F1689       F  0.97662250  0.04072843  0.34231154    -0.19640
F1690       F  0.63879116  0.16406547  0.33022524    -0.19690
F1691       F  0.60862122  0.18566536  0.32421064    -0.20010
F1692       F  0.61485962  0.15999460  0.28197620    -0.22690
C1693       C  0.96573219  0.24585674  0.52877748    -0.05520
C1694       C  0.99761363  0.26788772  0.52888845     0.00400
C1695       C  0.00746618  0.29660807  0.54568325    -0.08170
C1696       C  0.98506183  0.30258797  0.55916804    -0.05550
C1697       C  0.95348680  0.27989421  0.56097007     0.00390
C1698       C  0.94421484  0.25006339  0.54735567    -0.08080
C1699       C  0.91274431  0.22159268  0.55249859     0.62300
H1700       H  0.95730146  0.22469824  0.51442892     0.13000
H1701       H  0.99275602  0.32569943  0.56849117     0.13010
C1702       C  0.54093514  0.32243100  0.54962850     0.62540
F1703       F  0.91615000  0.19614318  0.55913621    -0.22630
F1704       F  0.89532369  0.21562783  0.52379341    -0.19960
F1705       F  0.89738601  0.22502527  0.57925936    -0.19640
F1706       F  0.54646612  0.34686862  0.52893649    -0.19690
F1707       F  0.56200327  0.31305176  0.54265689    -0.20010
F1708       F  0.54609108  0.33293132  0.58225989    -0.22690
C1709       C  0.53377355  0.22739514  0.45052016    -0.05520
C1710       C  0.53850944  0.22706114  0.48519043     0.00400
C1711       C  0.55566048  0.21305312  0.49691191    -0.08170
C1712       C  0.56660542  0.19974317  0.47394641    -0.05550
C1713       C  0.56385113  0.20206813  0.43957528     0.00390
C1714       C  0.54681919  0.21572283  0.42735643    -0.08080
C1715       C  0.54211652  0.21761036  0.39032293     0.62300
H1716       H  0.51900640  0.23606372  0.44171948     0.13000
H1717       H  0.57908110  0.18851687  0.48299372     0.13010
C1718       C  0.56343980  0.21125308  0.53314544     0.62540
F1719       F  0.02777165  0.23473186  0.38374309    -0.22630
F1720       F  0.52361402  0.18807248  0.37756218    -0.19960
F1721       F  0.57042057  0.23160556  0.37416798    -0.19640
F1722       F  0.54397425  0.18162360  0.54504564    -0.19690
F1723       F  0.56098157  0.23232469  0.55307331    -0.20010
F1724       F  0.59382354  0.21770419  0.53583920    -0.22690
C1725       C  0.57752325  0.32373117  0.44496734    -0.05520
C1726       C  0.56158743  0.33961687  0.43700469     0.00400
C1727       C  0.53046375  0.32674711  0.44814042    -0.08170
C1728       C  0.51717209  0.29866336  0.46588796    -0.05550
C1729       C  0.53517717  0.28687773  0.48001323     0.00390
C1730       C  0.56683431  0.30081833  0.46984811    -0.08080
C1731       C  0.59181484  0.29621278  0.48606569     0.62300
H1732       H  0.60093740  0.33278465  0.43568862     0.13000
H1733       H  0.49269497  0.28731694  0.47168372     0.13010
C1734       C  0.51160474  0.34303479  0.44455822     0.62540
F1735       F  0.61754090  0.32490757  0.49287358    -0.22630
F1736       F  0.60066512  0.28038434  0.46444345    -0.19960
F1737       F  0.58274516  0.28064924  0.51584040    -0.19640
F1738       F  0.50129513  0.34060287  0.41216372    -0.19690
F1739       F  0.52919984  0.37396739  0.45364324    -0.20010
F1740       F  0.48572429  0.32992468  0.46498062    -0.22690
C1741       C  0.65546876  0.43778009  0.48344520    -0.05520
C1742       C  0.65812281  0.44084236  0.44880503     0.00400
C1743       C  0.68811276  0.45664118  0.43436526    -0.08170
C1744       C  0.71432580  0.46839931  0.45555132    -0.05550
C1745       C  0.71152977  0.46486678  0.49050830     0.00390
C1746       C  0.68114938  0.44825395  0.50438136    -0.08080
C1747       C  0.67355382  0.44066267  0.54094353     0.62300
H1748       H  0.63247989  0.42582824  0.49444126     0.13000
H1749       H  0.73722756  0.98272548  0.44513193     0.13010
C1750       C  0.69272062  0.46259019  0.39719007     0.62540
F1751       F  0.65904055  0.45620950  0.55299651    -0.22630
F1752       F  0.69902453  0.44834513  0.56024348    -0.19960
F1753       F  0.65367416  0.40900848  0.54439591    -0.19640
F1754       F  0.68456331  0.48438324  0.38830634    -0.19690
F1755       F  0.67475445  0.43539468  0.37958071    -0.20010
F1756       F  0.72337309  0.97432964  0.38811052    -0.22690
C1757       C  0.56304264  0.41380248  0.33763624    -0.05520
C1758       C  0.57511869  0.43046229  0.36733283     0.00400
C1759       C  0.57245710  0.45725654  0.37329043    -0.08170
C1760       C  0.56062484  0.46787430  0.34771647    -0.05550
C1761       C  0.54847739  0.45108009  0.31795859     0.00390
C1762       C  0.54810168  0.42238332  0.31377621    -0.08080
C1763       C  0.53160033  0.40009935  0.28501287     0.62300
H1764       H  0.56474249  0.39317467  0.33364601     0.13000
H1765       H  0.55995090  0.48912081  0.35135853     0.13010
C1766       C  0.58035969  0.47402047  0.40668716     0.62540
F1767       F  0.53510922  0.37419161  0.28597673    -0.22630
F1768       F  0.54335178  0.41473536  0.25505532    -0.19960
F1769       F  0.50014955  0.38969961  0.28648530    -0.19640
F1770       F  0.61189876  0.49442123  0.40885310    -0.19690
F1771       F  0.57107303  0.45298953  0.43264366    -0.20010
F1772       F  0.56538247  0.49095046  0.41058063    -0.22690
C1773       C  0.71850086  0.02298438  0.51003449    -0.05520
C1774       C  0.73380516  0.01095714  0.52941685     0.00400
C1775       C  0.73925078  0.01989635  0.56385795    -0.08170
C1776       C  0.73113716  0.04155516  0.57587796    -0.05550
C1777       C  0.71376907  0.05080150  0.55674369     0.00390
C1778       C  0.70573287  0.03987253  0.52384911    -0.08080
C1779       C  0.68205749  0.04405499  0.50410963     0.62300
H1780       H  0.71477419  0.51750805  0.48372920     0.13000
H1781       H  0.73641717  0.04965224  0.60145853     0.13010
C1782       C  0.75141961  0.00699148  0.59016582     0.62540
F1783       F  0.67462566  0.52804394  0.47407217    -0.22630
F1784       F  0.69358704  0.07500597  0.49710231    -0.19960
F1785       F  0.65513055  0.53321807  0.52222824    -0.19640
F1786       F  0.78101025  0.02974636  0.59920252    -0.19690
F1787       F  0.75170958  0.98079311  0.58002138    -0.20010
F1788       F  0.73267875  0.99883021  0.61810323    -0.22690
C1789       C  0.71575011  0.14943575  0.52093604    -0.05520
C1790       C  0.71510302  0.15056081  0.55575683     0.00400
C1791       C  0.72709057  0.17983823  0.57181810    -0.08170
C1792       C  0.73751544  0.20665040  0.55187169    -0.05550
C1793       C  0.73769275  0.20499337  0.51683281     0.00390
C1794       C  0.72908096  0.17613201  0.50149573    -0.08080
C1795       C  0.73481584  0.17235793  0.46508707     0.62300
H1796       H  0.70697208  0.12727975  0.50862445     0.13000
H1797       H  0.74527799  0.22900791  0.56349801     0.13010
C1798       C  0.72921712  0.18306012  0.60945640     0.62540
F1799       F  0.74447220  0.15075443  0.46195624    -0.22630
F1800       F  0.75790931  0.19968699  0.45155587    -0.19960
F1801       F  0.70767171  0.16195753  0.44716809    -0.19640
F1802       F  0.74226148  0.16650351  0.62252003    -0.19690
F1803       F  0.70001213  0.17207674  0.62278710    -0.20010
F1804       F  0.74745831  0.21377387  0.61917532    -0.22690
C1805       C  0.89337128  0.42360534  0.36623835    -0.05520
C1806       C  0.86651615  0.42428264  0.35671882     0.00400
C1807       C  0.86466499  0.43411972  0.32420779    -0.08170
C1808       C  0.89068693  0.44493670  0.30317199    -0.05550
C1809       C  0.91788446  0.44487029  0.31282507     0.00390
C1810       C  0.91887225  0.43300710  0.34465610    -0.08080
C1811       C  0.94638886  0.43005486  0.35600792     0.62300
H1812       H  0.89393766  0.41507766  0.39088086     0.13000
H1813       H  0.88975696  0.45323952  0.27852571     0.13010
C1814       C  0.83504058  0.43199987  0.31116529     0.62540
F1815       F  0.94330998  0.42010873  0.38869331    -0.22630
F1816       F  0.97337864  0.45844134  0.35379969    -0.19960
F1817       F  0.94887141  0.40861469  0.33619796    -0.19640
F1818       F  0.82974966  0.45355277  0.32706372    -0.19690
F1819       F  0.81020482  0.40250801  0.31666528    -0.20010
F1820       F  0.83662423  0.43771547  0.27728008    -0.22690
C1821       C  0.81545449  0.32638610  0.43476200    -0.05520
C1822       C  0.79557771  0.33869154  0.43262190     0.00400
C1823       C  0.76511309  0.32117413  0.44570435    -0.08170
C1824       C  0.75817597  0.29586306  0.46631059    -0.05550
C1825       C  0.77844057  0.28404430  0.46957559     0.00390
C1826       C  0.80643431  0.29811911  0.45085919    -0.08080
C1827       C  0.82794965  0.28489553  0.44778595     0.62300
H1828       H  0.83851679  0.33908786  0.42417726     0.13000
H1829       H  0.73668602  0.28553977  0.48018432     0.13010
C1830       C  0.73895236  0.32761385  0.43845612     0.62540
F1831       F  0.83889722  0.28849445  0.41546829    -0.22630
F1832       F  0.81311352  0.25353474  0.45476068    -0.19960
F1833       F  0.85294004  0.30064633  0.46905192    -0.19640
F1834       F  0.74563921  0.34814166  0.41240992    -0.19690
F1835       F  0.73252057  0.33926283  0.46674990    -0.20010
F1836       F  0.71262447  0.30011806  0.42958272    -0.22690
C1837       C  0.76985219  0.42432427  0.45699268    -0.05520
C1838       C  0.79945662  0.44067313  0.44187908     0.00400
C1839       C  0.81682927  0.47343477  0.44688794    -0.08170
C1840       C  0.80293662  0.48778077  0.46457232    -0.05550
C1841       C  0.77554885  0.47095412  0.48344045     0.00390
C1842       C  0.75970500  0.43807224  0.48083141    -0.08080
C1843       C  0.73468738  0.41608937  0.50459566     0.62300
H1844       H  0.75553386  0.39957636  0.45282079     0.13000
H1845       H  0.81509310  0.01283819  0.46567166     0.13010
C1846       C  0.85049650  0.49396819  0.43644931     0.62540
F1847       F  0.74014408  0.39236765  0.51354270    -0.22630
F1848       F  0.70603903  0.40311402  0.48919187    -0.19960
F1849       F  0.73433019  0.43061859  0.53367599    -0.19640
F1850       F  0.85184736  0.50314539  0.40372887    -0.19690
F1851       F  0.86709039  0.47872323  0.44042029    -0.20010
F1852       F  0.86512633  0.02065591  0.45582796    -0.22690
C1853       C  0.97104074  0.17566063  0.57704285    -0.05520
C1854       C  0.95402075  0.14937385  0.55695522     0.00400
C1855       C  0.95728206  0.15199887  0.52194324    -0.08170
C1856       C  0.97758916  0.18106823  0.50836687    -0.05550
C1857       C  0.99645726  0.20731033  0.52815015     0.00390
C1858       C  0.99254582  0.20475687  0.56351740    -0.08080
C1859       C  0.50992329  0.23065462  0.58871770     0.62300
H1860       H  0.96810793  0.17314562  0.60384231     0.13000
H1861       H  0.97941469  0.18338456  0.48154812     0.13010
C1862       C  0.94047905  0.12413596  0.49872049     0.62540
F1863       F  0.48901788  0.23664129  0.60506196    -0.22630
F1864       F  0.53259726  0.25794257  0.57493835    -0.19960
F1865       F  0.52402492  0.22120976  0.61193979    -0.19640
F1866       F  0.90914393  0.11406158  0.49843527    -0.19690
F1867       F  0.94504898  0.10022617  0.50910488    -0.20010
F1868       F  0.95107526  0.13130900  0.46625251    -0.22690
C1869       C  0.84185095  0.06254703  0.53560759    -0.05520
C1870       C  0.85230924  0.05077349  0.56160616     0.00400
C1871       C  0.83182217  0.01969667  0.57211344    -0.08170
C1872       C  0.80653665  0.00046070  0.55173009    -0.05550
C1873       C  0.79546862  0.01257492  0.52725077     0.00390
C1874       C  0.81343531  0.04445179  0.51904528    -0.08080
C1875       C  0.80562245  0.06030502  0.49138808     0.62300
H1876       H  0.85616637  0.08583057  0.52650070     0.13000
H1877       H  0.79347712  0.47578381  0.55698304     0.13010
C1878       C  0.83294682  0.50634452  0.60578322     0.62540
F1879       F  0.80151765  0.08352188  0.50512229    -0.22630
F1880       F  0.77926173  0.04047265  0.47365609    -0.19960
F1881       F  0.82998509  0.07360236  0.46901502    -0.19640
F1882       F  0.85145022  0.02918431  0.62847443    -0.19690
F1883       F  0.84326924  0.48535901  0.60193180    -0.20010
F1884       F  0.80350387  0.49061559  0.61940093    -0.22690
C1885       C  0.92065844  0.36081031  0.65196148    -0.05520
C1886       C  0.94068556  0.35624201  0.63106036     0.00400
C1887       C  0.97273272  0.37966882  0.63080781    -0.08170
C1888       C  0.98369033  0.40364055  0.65477340    -0.05550
C1889       C  0.96349669  0.40802826  0.67547735     0.00390
C1890       C  0.93094833  0.38767678  0.67151800    -0.08080
C1891       C  0.90662878  0.39474961  0.68535856     0.62300
H1892       H  0.89631011  0.34340196  0.65250910     0.13000
H1893       H  0.50838619  0.41981543  0.65655279     0.13010
C1894       C  0.99580685  0.38140839  0.60493632     0.62540
F1895       F  0.87776927  0.37587757  0.67112840    -0.22630
F1896       F  0.91493071  0.42514152  0.67816847    -0.19960
F1897       F  0.90351388  0.39015917  0.71936357    -0.19640
F1898       F  0.48161189  0.37026917  0.57441616    -0.19690
F1899       F  0.00959776  0.36483591  0.61576756    -0.20010
F1900       F  0.51901740  0.41189021  0.60000725    -0.22690
C1901       C  0.61707073  0.03856557  0.68286350    -0.05520
C1902       C  0.58971726  0.03902126  0.67558875     0.00400
C1903       C  0.58763329  0.05203861  0.64484296    -0.08170
C1904       C  0.61306147  0.06394606  0.62277860    -0.05550
C1905       C  0.64049199  0.06390906  0.63070355     0.00390
C1906       C  0.64295431  0.05185230  0.66174996    -0.08080
C1907       C  0.67312025  0.05420245  0.67355673     0.62300
H1908       H  0.61833754  0.02791977  0.70566847     0.13000
H1909       H  0.61177368  0.07345607  0.59898394     0.13010
C1910       C  0.55844127  0.05222568  0.63450192     0.62540
F1911       F  0.67230013  0.04792273  0.70720110    -0.22630
F1912       F  0.69763830  0.08394943  0.66837223    -0.19960
F1913       F  0.67850195  0.03313469  0.65670150    -0.19640
F1914       F  0.55393014  0.07209226  0.65483213    -0.19690
F1915       F  0.53334423  0.02252408  0.63691986    -0.20010
F1916       F  0.55998186  0.06199739  0.60193346    -0.22690
C1917       C  0.96022254  0.05731814  0.68101842    -0.05520
C1918       C  0.96332947  0.03156332  0.67252803     0.00400
C1919       C  0.95663557  0.02005031  0.63916181    -0.08170
C1920       C  0.94677461  0.03476018  0.61614516    -0.05550
C1921       C  0.94401358  0.06059975  0.62489628     0.00390
C1922       C  0.95000858  0.07158971  0.65818520    -0.08080
C1923       C  0.94429201  0.09735374  0.67022585     0.62300
H1924       H  0.96553795  0.06614313  0.70626213     0.13000
H1925       H  0.94137254  0.02609989  0.59077701     0.13010
C1926       C  0.95993543  0.99331516  0.62545733     0.62540
F1927       F  0.94665502  0.10067995  0.70453269    -0.22630
F1928       F  0.91475304  0.09068777  0.66128277    -0.19960
F1929       F  0.96583975  0.12539528  0.65642517    -0.19640
F1930       F  0.93084342  0.46902656  0.61699063    -0.19690
F1931       F  0.47356215  0.98231481  0.64719740    -0.20010
F1932       F  0.97805532  0.00302397  0.59703707    -0.22690
C1933       C  0.54788386  0.10707055  0.12957353    -0.05520
C1934       C  0.57667407  0.13336887  0.13740171     0.00400
C1935       C  0.59304623  0.13227073  0.16599226    -0.08170
C1936       C  0.58079714  0.10441078  0.18426988    -0.05550
C1937       C  0.55162245  0.07879293  0.17699813     0.00390
C1938       C  0.53460189  0.08021063  0.14950315    -0.08080
C1939       C  0.00249163  0.05348205  0.14132004     0.62300
H1940       H  0.53562458  0.10774151  0.10761085     0.13000
H1941       H  0.59330059  0.10324791  0.20582856     0.13010
C1942       C  0.62262351  0.15995808  0.17912273     0.62540
F1943       F  0.99119457  0.05817100  0.11170677    -0.22630
F1944       F  0.98216674  0.05042782  0.16640843    -0.19960
F1945       F  0.00337359  0.02623016  0.13841753    -0.19640
F1946       F  0.62628465  0.18796111  0.16828668    -0.19690
F1947       F  0.64785195  0.15740682  0.16926841    -0.20010
F1948       F  0.62204156  0.16051544  0.21354976    -0.22690
C1949       C  0.67677559  0.23722575  0.04745380    -0.05520
C1950       C  0.65993035  0.20593285  0.05765241     0.00400
C1951       C  0.66980164  0.18530349  0.04620435    -0.08170
C1952       C  0.69738883  0.19765257  0.02811700    -0.05550
C1953       C  0.71217299  0.22778525  0.01424758     0.00390
C1954       C  0.70021362  0.24758052  0.02311995    -0.08080
C1955       C  0.70806455  0.27809124  0.00657552     0.62300
H1956       H  0.66934993  0.25318040  0.05595319     0.13000
H1957       H  0.70649116  0.18246110  0.02352927     0.13010
C1958       C  0.65107598  0.15004825  0.04997730     0.62540
F1959       F  0.68090332  0.27669732  0.99613514    -0.22630
F1960       F  0.72658765  0.28474825  0.97895654    -0.19960
F1961       F  0.72248958  0.30208510  0.02935052    -0.19640
F1962       F  0.61972850  0.13912176  0.04567773    -0.19690
F1963       F  0.65643646  0.14148977  0.08088305    -0.20010
F1964       F  0.65943861  0.13537656  0.02615053    -0.22690
C1965       C  0.54624021  0.21673379  0.07752730    -0.05520
C1966       C  0.55885928  0.20180374  0.05902105     0.00400
C1967       C  0.55200544  0.19619702  0.02469871    -0.08170
C1968       C  0.53507988  0.20830550  0.00966863    -0.05550
C1969       C  0.52000877  0.22111382  0.02809367     0.00390
C1970       C  0.52554042  0.22507923  0.06326248    -0.08080
C1971       C  0.51019195  0.23657899  0.08764065     0.62300
H1972       H  0.55165166  0.22074049  0.10387981     0.13000
H1973       H  0.53211943  0.20615380  0.98290682     0.13010
C1974       C  0.56036411  0.17560507  0.00414800     0.62540
F1975       F  0.49857221  0.21635875  0.11432736    -0.22630
F1976       F  0.48582634  0.23844428  0.07412675    -0.19960
F1977       F  0.53205830  0.26556879  0.09946963    -0.19640
F1978       F  0.55341517  0.14903449  0.02180576    -0.19690
F1979       F  0.59151340  0.19130274  0.99620948    -0.20010
F1980       F  0.54372368  0.16626155  0.97460911    -0.22690
C1981       C  0.70864378  0.44983952  0.02592011    -0.05520
C1982       C  0.71859225  0.48123581  0.01942941     0.00400
C1983       C  0.70206825  0.49449173  0.03471665    -0.08170
C1984       C  0.67352167  0.47468841  0.05022493    -0.05550
C1985       C  0.66383247  0.44333318  0.05643425     0.00390
C1986       C  0.68425243  0.43237470  0.04789478    -0.08080
C1987       C  0.68335524  0.40436018  0.06366378     0.62300
H1988       H  0.72044442  0.43879992  0.01481741     0.13000
H1989       H  0.65892403  0.48401185  0.05777315     0.13010
C1990       C  0.71361714  0.02910213  0.03516382     0.62540
F1991       F  0.67498150  0.38122515  0.04017711    -0.22630
F1992       F  0.66347130  0.39338755  0.09056169    -0.19960
F1993       F  0.71257109  0.41259588  0.07540157    -0.19640
F1994       F  0.70076414  0.03671185  0.00889504    -0.19690
F1995       F  0.74561093  0.04632973  0.03341114    -0.20010
F1996       F  0.70503066  0.03728577  0.06460067    -0.22690
C1997       C  0.54991685  0.29206552  0.02645698    -0.05520
C1998       C  0.51813912  0.28205211  0.02616595     0.00400
C1999       C  0.50825772  0.30200194  0.04029708    -0.08170
C2000       C  0.53067037  0.33143171  0.05194326    -0.05550
C2001       C  0.56224685  0.34057246  0.05454412     0.00390
C2002       C  0.57165065  0.31943154  0.04282861    -0.08080
C2003       C  0.60389350  0.32422579  0.04691461     0.62300
H2004       H  0.55806283  0.27836010  0.01362615     0.13000
H2005       H  0.52314851  0.34757977  0.05928096     0.13010
C2006       C  0.97457654  0.29402438  0.04244725     0.62540
F2007       F  0.60297539  0.29598363  0.04932307    -0.22630
F2008       F  0.61756804  0.34047758  0.07572437    -0.19960
F2009       F  0.62139563  0.33960418  0.01933943    -0.19640
F2010       F  0.95485298  0.26259201  0.04613749    -0.19690
F2011       F  0.96656088  0.30422944  0.01419427    -0.20010
F2012       F  0.97011689  0.30830602  0.06985225    -0.22690
C2013       C  0.57118657  0.44290379  0.18690807    -0.05520
C2014       C  0.54876018  0.44995205  0.17539219     0.00400
C2015       C  0.54076260  0.44595302  0.14111183    -0.08170
C2016       C  0.55479922  0.43391199  0.11985855    -0.05550
C2017       C  0.57629687  0.42581134  0.13186594     0.00390
C2018       C  0.58432089  0.42987056  0.16596669    -0.08080
C2019       C  0.60589278  0.41952851  0.18025635     0.62300
H2020       H  0.57828737  0.44749918  0.21270090     0.13000
H2021       H  0.54919017  0.43078614  0.09354728     0.13010
C2022       C  0.51897291  0.45599057  0.12673963     0.62540
F2023       F  0.60866725  0.42317086  0.21451236    -0.22630
F2024       F  0.63510562  0.43677450  0.16652943    -0.19960
F2025       F  0.59440110  0.38842151  0.17306985    -0.19640
F2026       F  0.52951104  0.98675141  0.13535815    -0.19690
F2027       F  0.48935158  0.43738216  0.13900199    -0.20010
F2028       F  0.51753338  0.45384994  0.09232172    -0.22690
C2029       C  0.58078675  0.03143216  0.85319329    -0.05520
C2030       C  0.58877678  0.03232381  0.81948993     0.00400
C2031       C  0.62040790  0.04621755  0.81053101    -0.08170
C2032       C  0.64318353  0.05953959  0.83538241    -0.05550
C2033       C  0.63545166  0.05899191  0.86896513     0.00390
C2034       C  0.60376904  0.04447325  0.87834968    -0.08080
C2035       C  0.59435630  0.04213215  0.91463691     0.62300
H2036       H  0.55644495  0.02066639  0.85957952     0.13000
H2037       H  0.66750055  0.07028840  0.82884792     0.13010
C2038       C  0.62998267  0.04583317  0.77491014     0.62540
F2039       F  0.56248711  0.02480796  0.91849871    -0.22830
F2040       F  0.60431875  0.07144007  0.92750284    -0.19960
F2041       F  0.60748859  0.02800429  0.93275241    -0.19640
F2042       F  0.62087023  0.06254399  0.75510832    -0.19690
F2043       F  0.61605865  0.01536630  0.76398508    -0.20010
F2044       F  0.66177236  0.05883902  0.77180319    -0.22690
C2045       C  0.70273078  0.16679482  0.92849611    -0.05520
C2046       C  0.71098746  0.14649749  0.94367735     0.00400
C2047       C  0.73099317  0.15787905  0.97209814    -0.08170
C2048       C  0.74532548  0.18975871  0.97994750    -0.05550
C2049       C  0.73303332  0.20801603  0.96829601     0.00390
C2050       C  0.70998135  0.19536980  0.94285407    -0.08080
C2051       C  0.69107700  0.20944149  0.93002584     0.62300
H2052       H  0.68852364  0.15971074  0.90628428     0.13000
H2053       H  0.76164651  0.19862806  0.00052570     0.13010
C2054       C  0.73404415  0.13738488  0.99823144     0.62540
F2055       F  0.69734774  0.21649246  0.89660546    -0.22630
F2056       F  0.69660901  0.23582894  0.94664120    -0.19960
F2057       F  0.65985149  0.18797190  0.93350289    -0.19640
F2058       F  0.76227004  0.13867441  0.99476786    -0.19690
F2059       F  0.71015337  0.10689133  0.99649894    -0.20010
F2060       F  0.73287968  0.14791310  0.02987676    -0.22690
C2061       C  0.70004863  0.01882211  0.93166419    -0.05520
C2062       C  0.72000032  0.05089542  0.92690752     0.00400
C2063       C  0.75104718  0.06406985  0.93831829    -0.08170
C2064       C  0.75797175  0.04759390  0.96179338    -0.05550
C2065       C  0.73746897  0.01580774  0.96783900     0.00390
C2066       C  0.70942074  0.00062747  0.94923534    -0.08080
C2067       C  0.68804059  0.46564463  0.94823814     0.62300
H2068       H  0.67642347  0.00759690  0.92260704     0.13000
H2069       H  0.77993245  0.05973307  0.97479726     0.13010
C2070       C  0.77787906  0.09402063  0.92501897     0.62540
F2071       F  0.66479533  0.45691213  0.97163470    -0.22630
F2072       F  0.70410324  0.95009192  0.95391572    -0.19960
F2073       F  0.67448602  0.45655056  0.91706369    -0.19640
F2074       F  0.78997927  0.11611437  0.95004783    -0.19690
F2075       F  0.76929463  0.10559096  0.89830268    -0.20010
F2076       F  0.80092142  0.08835891  0.91405898    -0.22690
C2077       C  0.87343333  0.40923587  0.14803244    -0.05520
C2078       C  0.87345759  0.42913790  0.12334209     0.00400
C2079       C  0.89923760  0.45981957  0.12136881    -0.08170
C2080       C  0.92185711  0.47034663  0.14669982    -0.05550
C2081       C  0.92172782  0.45051460  0.17172770     0.00390
C2082       C  0.89760932  0.41867057  0.17128503    -0.08080
C2083       C  0.89659888  0.39418446  0.19486078     0.62300
H2084       H  0.85376252  0.38588582  0.14923587     0.13000
H2085       H  0.94051758  0.49423897  0.14612316     0.13010
C2086       C  0.90474503  0.48196174  0.09276260     0.62540
F2087       F  0.87147220  0.36492970  0.18866610    -0.22630
F2088       F  0.89429606  0.40180775  0.22748687    -0.19960
F2089       F  0.92304827  0.39201811  0.19083741    -0.19640
F2090       F  0.89689334  0.50378599  0.10266488    -0.19690
F2091       F  0.88809540  0.46679469  0.06451709    -0.20010
F2092       F  0.93581171  0.99727649  0.08399142    -0.22690
C2093       C  0.78483931  0.31638212  0.06737373    -0.05520
C2094       C  0.79561273  0.34436961  0.04983926     0.00400
C2095       C  0.79826524  0.34427096  0.01472518    -0.08170
C2096       C  0.78758393  0.31597647  0.99833196    -0.05550
C2097       C  0.77544069  0.28767351  0.01534778     0.00390
C2098       C  0.77579274  0.28801060  0.05077568    -0.08080
C2099       C  0.76872686  0.26022541  0.07231755     0.62300
H2100       H  0.78430302  0.31686261  0.09436391     0.13000
H2101       H  0.78837617  0.31571899  0.97137725     0.13010
C2102       C  0.81072882  0.37330561  0.99363831     0.62540
F2103       F  0.79315067  0.26829281  0.09410907    -0.22630
F2104       F  0.76469343  0.23481886  0.05425104    -0.19960
F2105       F  0.74216243  0.25179642  0.09060090    -0.19640
F2106       F  0.83561905  0.39831620  0.00894942    -0.19690
F2107       F  0.78706963  0.37955779  0.98837411    -0.20010
F2108       F  0.82084486  0.36930840  0.96286463    -0.22690
C2109       C  0.79816355  0.44323843  0.02221581    -0.05520
C2110       C  0.79561312  0.44265656  0.05692367     0.00400
C2111       C  0.78348956  0.45989269  0.07251622    -0.08170
C2112       C  0.77551414  0.47814151  0.05230705    -0.05550
C2113       C  0.77749840  0.47784476  0.01722121     0.00390
C2114       C  0.78682618  0.45806641  0.00209745    -0.08080
C2115       C  0.78432404  0.45112731  0.96497424     0.62300
H2116       H  0.80836742  0.43094989  0.01049250     0.13000
H2117       H  0.76776557  0.49278972  0.06374044     0.13010
C2118       C  0.77867563  0.45882678  0.10989509     0.62540
F2119       F  0.77737603  0.42088414  0.95933519    -0.22630
F2120       F  0.81224822  0.47080915  0.94966625    -0.19960
F2121       F  0.76072797  0.45391188  0.95045830    -0.19640
F2122       F  0.80698162  0.47403246  0.12599069    -0.19690
F2123       F  0.76250927  0.42830352  0.12054396    -0.20010
F2124       F  0.76190949  0.47300168  0.11899841    -0.22690
C2125       C  0.93973360  0.35282420  0.83266455    -0.05520
C2126       C  0.93668164  0.35970063  0.86577429     0.00400
C2127       C  0.94653639  0.39085676  0.87506295    -0.08170
C2128       C  0.95765261  0.41387113  0.85013764    -0.05550
C2129       C  0.96083824  0.40700810  0.81693784     0.00390
C2130       C  0.95218406  0.37596202  0.80805846    -0.08080
C2131       C  0.95550744  0.36684050  0.77279903     0.62300
H2132       H  0.93263884  0.32897647  0.82639234     0.13000
H2133       H  0.96481248  0.43770297  0.85657032     0.13010
C2134       C  0.94683919  0.40010001  0.91124489     0.62540
F2135       F  0.94238063  0.33499791  0.76918147    -0.22630
F2136       F  0.98651868  0.38037361  0.76449492    -0.19960
F2137       F  0.94079397  0.37642501  0.75079577    -0.19640
F2138       F  0.96258435  0.38940801  0.93047267    -0.19690
F2139       F  0.91688238  0.38763611  0.92295291    -0.20010
F2140       F  0.96146806  0.43204257  0.91513268    -0.22690
C2141       C  0.82986434  0.27874193  0.92663517    -0.05520
C2142       C  0.85586813  0.28828703  0.94709940     0.00400
C2143       C  0.85193093  0.28558699  0.98212354    -0.08170
C2144       C  0.82170686  0.27136891  0.99495856    -0.05550
C2145       C  0.79577187  0.26429555  0.97487349     0.00390
C2146       C  0.80028487  0.26904670  0.93981777    -0.08080
C2147       C  0.77590135  0.26618947  0.91525918     0.62300
H2148       H  0.83312775  0.28061695  0.89985490     0.13000
H2149       H  0.81854030  0.26842057  0.02166291     0.13010
C2150       C  0.87903004  0.29994018  0.00650543     0.62540
F2151       F  0.78924303  0.28877083  0.89087170    -0.22630
F2152       F  0.75340019  0.27026908  0.93019456    -0.19960
F2153       F  0.76259718  0.23738920  0.90003837    -0.19640
F2154       F  0.90344176  0.32703309  0.99381950    -0.19690
F2155       F  0.88897210  0.27912323  0.01339522    -0.20010
F2156       F  0.87038334  0.30760842  0.03624622    -0.22690
C2157       C  0.93584561  0.25185307  0.94520287    -0.05520
C2158       C  0.95228044  0.28254415  0.93303718     0.00400
C2159       C  0.98477952  0.30017170  0.93958164    -0.08170
C2160       C  0.99795003  0.28689599  0.96000937    -0.05550
C2161       C  0.97974069  0.25978333  0.97872260     0.00390
C2162       C  0.94753222  0.24187428  0.97121638    -0.08080
C2163       C  0.92345086  0.21413122  0.99081316     0.62300
H2164       H  0.91170976  0.23719045  0.93822697     0.13000
H2165       H  0.52279746  0.29919092  0.96387605     0.13010
C2166       C  0.50596721  0.33312175  0.92712601     0.62540
F2167       F  0.89937872  0.21909151  0.99951231    -0.22630
F2168       F  0.93478734  0.20905805  0.01989106    -0.19960
F2169       F  0.91162451  0.18773090  0.97116213    -0.19640
F2170       F  0.49389282  0.35198488  0.93516034    -0.19690
F2171       F  0.00985302  0.33273875  0.89308742    -0.20010
F2172       F  0.53521089  0.34649929  0.94138365    -0.22690
C2173       C  0.94909234  0.14367609  0.97359421    -0.05520
C2174       C  0.95092414  0.14893458  0.93925743     0.00400
C2175       C  0.96700377  0.17958333  0.92702839    -0.08170
C2176       C  0.98142451  0.20417366  0.95013028    -0.05550
C2177       C  0.97759607  0.19908799  0.98489217     0.00390
C2178       C  0.96059795  0.16792076  0.99667261    -0.08080
C2179       C  0.95368511  0.15822615  0.03297085     0.62300
H2180       H  0.93683316  0.11990570  0.98256984     0.13000
H2181       H  0.99627316  0.22752247  0.94108462     0.13010
C2182       C  0.96852325  0.18617937  0.89003597     0.62540
F2183       F  0.92268167  0.13597143  0.03638202    -0.22630
F2184       F  0.95912179  0.18224086  0.05400862    -0.19960
F2185       F  0.97154878  0.14558733  0.04305690    -0.19640
F2186       F  0.93881787  0.17266028  0.87706866    -0.19690
F2187       F  0.98470962  0.17412674  0.87396205    -0.20010
F2188       F  0.98323132  0.21774721  0.88364472    -0.22690
C2189       C  0.85535834  0.05581101  0.97116172    -0.05520
C2190       C  0.85382186  0.05359934  0.93632834     0.00400
C2191       C  0.82468555  0.03636222  0.92045009    -0.08170
C2192       C  0.79810846  0.01993127  0.94045434    -0.05550
C2193       C  0.79986950  0.02136879  0.97556243     0.00390
C2194       C  0.82878274  0.04151166  0.99093176    -0.08080
C2195       C  0.83244496  0.04904182  0.02792085     0.62300
H2196       H  0.87776826  0.06977190  0.98303059     0.13000
H2197       H  0.77585324  0.00536217  0.92873662     0.13010
C2198       C  0.82160300  0.03569267  0.88281824     0.62540
F2199       F  0.83981242  0.02922432  0.04442614    -0.22630
F2200       F  0.80575655  0.04665707  0.04125959    -0.19960
F2201       F  0.85606000  0.07928128  0.03332241    -0.19640
F2202       F  0.83521986  0.02004432  0.86884894    -0.19690
F2203       F  0.83597304  0.06572005  0.87065046    -0.20010
F2204       F  0.79084668  0.02087542  0.87287346    -0.22690
C2205       C  0.92417561  0.04857553  0.83740895    -0.05520
C2206       C  0.94114110  0.06218700  0.86651164     0.00400
C2207       C  0.96939892  0.06242765  0.87201829    -0.08170
C2208       C  0.98058627  0.05081969  0.84683010    -0.05550
C2209       C  0.96347595  0.03696825  0.81763736     0.00390
C2210       C  0.93431108  0.03539702  0.81307486    -0.08080
C2211       C  0.91376750  0.02053901  0.78266378     0.62300
H2212       H  0.90260580  0.04853664  0.83383360     0.13000
H2213       H  0.50259850  0.05174860  0.85046050     0.13010
C2214       C  0.98801770  0.07403863  0.90406952     0.62540
F2215       F  0.88838431  0.02486404  0.78221059    -0.22630
F2216       F  0.90252078  0.48883831  0.78266454    -0.19960
F2217       F  0.93046260  0.03353099  0.75390925    -0.19640
F2218       F  0.96968142  0.07211907  0.93084877    -0.19690
F2219       F  0.01130712  0.10454163  0.90003582    -0.20010
F2220       F  0.50147128  0.05629377  0.91178136    -0.22690
C2221       C  0.92818406  0.57636986  0.88935669     0.03390
C2222       C  0.94582039  0.60769236  0.89924841    -0.12760
C2223       C  0.93212042  0.62121580  0.91840399     0.00890
C2224       C  0.90043423  0.60408289  0.92550011    -0.11290
C2225       C  0.88328325  0.57238735  0.91827146     0.03380
C2226       C  0.89724111  0.55853795  0.90020866    -0.10710
H2227       H  0.97024750  0.62092388  0.89336671     0.08970
H2228       H  0.89011407  0.61447855  0.94090054     0.06500
H2229       H  0.88458498  0.53375510  0.89553761     0.06350
C2230       C  0.92501240  0.83394743  0.89024290     0.03390
C2231       C  0.94182301  0.81861123  0.89616203    -0.12760
C2232       C  0.93297676  0.79634882  0.92161942     0.00890
C2233       C  0.90480618  0.78733158  0.93823315    -0.11290
C2234       C  0.88648954  0.80042847  0.93074167     0.03380
C2235       C  0.89679479  0.82397058  0.90674897    -0.10710
H2236       H  0.96179177  0.82457690  0.88099966     0.08970
H2237       H  0.89655435  0.76957798  0.95711559     0.06500
H2238       H  0.88272026  0.83426968  0.90069773     0.06350
C2239       C  0.84545708  0.91663532  0.10147366     0.03390
C2240       C  0.83091576  0.93409576  0.09464129    -0.12760
C2241       C  0.80437019  0.92182912  0.07440045     0.00890
C2242       C  0.79089583  0.89089897  0.06327805    -0.11290
C2243       C  0.80568378  0.87365712  0.06859796     0.03380
C2244       C  0.83274331  0.88649472  0.08790879    -0.10710
H2245       H  0.84142726  0.95781984  0.10323856     0.08970
H2246       H  0.77051664  0.88137012  0.04745956     0.06500
H2247       H  0.84455097  0.87338438  0.09134071     0.06350
C2248       C  0.66157253  0.57182068  0.89308948     0.03390
C2249       C  0.67098361  0.59996936  0.90982429    -0.12760
C2250       C  0.69896523  0.61468653  0.92837777     0.00890
C2251       C  0.71626833  0.59950672  0.93056415    -0.11290
C2252       C  0.70595734  0.57007632  0.91631435     0.03380
C2253       C  0.67933826  0.55731560  0.89612050    -0.10710
H2254       H  0.65672770  0.61054465  0.90731402     0.08970
H2255       H  0.73754888  0.61031812  0.94434532     0.06500
H2256       H  0.67202736  0.53578578  0.88276514     0.06350
C2257       C  0.59021881  0.91350696  0.10785939     0.03390
C2258       C  0.57272981  0.88300488  0.09594457    -0.12760
C2259       C  0.58352538  0.87211593  0.06952610     0.00890
C2260       C  0.61293860  0.89270566  0.05598659    -0.11290
C2261       C  0.63208879  0.92247017  0.06994615     0.03380
C2262       C  0.62007599  0.93287011  0.09536687    -0.10710
H2263       H  0.55018610  0.86804681  0.10691604     0.08970
H2264       H  0.62093274  0.88601864  0.03422916     0.06500
H2265       H  0.63377899  0.95614890  0.10537122     0.06350
C2266       C  0.77234270  0.99975020  0.99621526     0.00820
C2267       C  0.74440587  0.99914733  0.99478909     0.00820
C2268       C  0.58909403  0.66028516  0.11383873     0.03390
C2269       C  0.56946964  0.67062969  0.10093714    -0.12760
C2270       C  0.57989306  0.69302778  0.07561398     0.00890
C2271       C  0.61014472  0.70574689  0.06386557    -0.11290
C2272       C  0.62983082  0.69521681  0.07525888     0.03380
C2273       C  0.61942340  0.67322466  0.10109565    -0.10710
H2274       H  0.54581467  0.66056194  0.10973360     0.08970
H2275       H  0.61771564  0.72296783  0.04430800     0.06500
H2276       H  0.63457249  0.66553963  0.11075337     0.06350
C2277       C  0.49675773  0.72576849  0.00821546     0.00820
C2278       C  0.49657050  0.75348698  0.00615108     0.00820
C2279       C  0.76776807  0.76025041  0.99356852     0.00820
C2280       C  0.73835615  0.73496840  0.99005744     0.00820
O2281       O  0.50604561  0.95167361  0.70318894    -0.85090
O2282       O  0.56197918  0.00412152  0.71981486    -0.82140
C2283       C  0.56443732  0.52566271  0.70103756     0.98370
O2284       O  0.54687810  0.53676235  0.70528576    -0.82170
O2285       O  0.49410475  0.53782317  0.72001908    -0.84820
C2286       C  0.97385614  0.51882325  0.69986755     1.02900
O2287       O  0.96146263  0.98996014  0.70471310    -0.77580
O2288       O  0.95943439  0.93539179  0.72204550    -0.77770
C2289       C  0.97706928  0.93341579  0.70099616     1.02850
O2290       O  0.49459811  0.93565200  0.77256829    -0.85090
O2291       O  0.54726578  0.99097091  0.78931866    -0.82150
C2292       C  0.56405196  0.51993374  0.79372030     0.98390
O2293       O  0.56114494  0.53892065  0.77528274    -0.82180
O2294       O  0.50559899  0.53573195  0.79025568    -0.84790
C2295       C  0.97666644  0.52451504  0.79269208     1.02860
O2296       O  0.95875599  0.00293818  0.77343453    -0.77610
O2297       O  0.96309183  0.95119530  0.79068158    -0.77750
C2298       C  0.97359824  0.93276762  0.79237699     1.02820
Cr2299     Cr  0.52585603  0.97228735  0.74628997     1.93740
Cr2300     Cr  0.52531355  0.53394785  0.74778839     1.93210
Cr2301     Cr  0.96406014  0.97166812  0.74777598     1.39100
O2302       O  0.50518875  0.99273833  0.74739634    -1.22840
C2303       C  0.93178693  0.57387962  0.60000849     0.03390
C2304       C  0.90144700  0.55588711  0.58792019    -0.12760
C2305       C  0.88546481  0.56989706  0.57372412     0.00890
C2306       C  0.90276564  0.60229929  0.56823888    -0.11290
C2307       C  0.93494100  0.61880732  0.57292743     0.03380
C2308       C  0.94923820  0.60493915  0.59017519    -0.10710
H2309       H  0.89053383  0.53114432  0.59074176     0.08970
H2310       H  0.89217248  0.61500795  0.55857136     0.06500
H2311       H  0.97382188  0.61816935  0.59573427     0.06350
C2312       C  0.84042299  0.91208697  0.38099079     0.03390
C2313       C  0.83052625  0.93137774  0.39591266    -0.12760
C2314       C  0.81143712  0.92162010  0.42458640     0.00890
C2315       C  0.80268713  0.89199463  0.43737356    -0.11290
C2316       C  0.80834846  0.87092595  0.41989774     0.03380
C2317       C  0.82784216  0.88141564  0.39205424    -0.10710
H2318       H  0.83864225  0.95404574  0.38572427     0.08970
H2319       H  0.79057507  0.88470366  0.46091194     0.06500
H2320       H  0.83404161  0.86604590  0.37936243     0.06350
C2321       C  0.66631036  0.57700709  0.60629262     0.03390
C2322       C  0.67888260  0.60772740  0.59480432    -0.12760
C2323       C  0.70450619  0.62055549  0.57316592     0.00890
C2324       C  0.71726106  0.60219808  0.56317313    -0.11290
C2325       C  0.70313786  0.57090888  0.57196885     0.03380
C2326       C  0.67762698  0.55834009  0.59339422    -0.10710
H2327       H  0.66794096  0.62095481  0.60178286     0.08970
H2328       H  0.73687082  0.61164099  0.54628878     0.06500
H2329       H  0.66604310  0.53379762  0.59917257     0.06350
C2330       C  0.58785019  0.91720351  0.39204273     0.03390
C2331       C  0.61726564  0.93555539  0.40681164    -0.12760
C2332       C  0.62873775  0.92243523  0.42971611     0.00890
C2333       C  0.61016051  0.89108281  0.43822103    -0.11290
C2334       C  0.58079104  0.87218721  0.42415591     0.03380
C2335       C  0.57047854  0.88524468  0.39991913    -0.10710
H2336       H  0.63092192  0.95978972  0.40066216     0.08970
H2337       H  0.61851450  0.88160209  0.45720198     0.06500
H2338       H  0.54882306  0.87075997  0.38728974     0.06350
C2339       C  0.52002846  0.73512432  0.50880227     0.00820
C2340       C  0.51919966  0.76250714  0.50696368     0.00820
C2341       C  0.76790578  0.98955581  0.50780101     0.00820
C2342       C  0.73896527  0.98678118  0.51166354     0.00820
C2343       C  0.58726295  0.65434558  0.38577189     0.03390
C2344       C  0.56927801  0.66676366  0.39812776    -0.12760
C2345       C  0.58274643  0.69314108  0.41869037     0.00890
C2346       C  0.61444350  0.70736201  0.42608004    -0.11290
C2347       C  0.63178142  0.69321899  0.41772049     0.03380
C2348       C  0.61803022  0.66656721  0.39730356    -0.10710
H2349       H  0.54471494  0.65513391  0.39270602     0.08970
H2350       H  0.62471719  0.72763186  0.44223139     0.06500
H2351       H  0.63055615  0.65460763  0.39151899     0.06350
C2352       C  0.92653736  0.82829966  0.60834883     0.03390
C2353       C  0.94165365  0.81155118  0.60116571    -0.12760
C2354       C  0.93172517  0.78989310  0.57469485     0.00890
C2355       C  0.90340938  0.78183946  0.55876662    -0.11290
C2356       C  0.88488982  0.79416738  0.56979705     0.03380
C2357       C  0.89744503  0.81833932  0.59344524    -0.10710
H2358       H  0.96224627  0.81659190  0.61498726     0.08970
H2359       H  0.89582056  0.76627009  0.53758848     0.06500
H2360       H  0.88453905  0.82968694  0.60004805     0.06350
C2361       C  0.77173402  0.75955126  0.49525874     0.00820
C2362       C  0.74356154  0.73235991  0.49604861     0.00820
O2363       O  0.51568458  0.54882870  0.21876398    -0.85090
O2364       O  0.96419174  0.99288791  0.20091484    -0.82140
C2365       C  0.94681506  0.96386107  0.19762832     0.98370
O2366       O  0.94991985  0.94595175  0.21727526    -0.82170
O2367       O  0.50615354  0.95057328  0.20211416    -0.84820
C2368       C  0.53516767  0.96207696  0.20004612     1.02900
O2369       O  0.55297754  0.98271075  0.22054635    -0.77580
O2370       O  0.55032838  0.53578571  0.20491594    -0.77770
C2371       C  0.53820909  0.55262583  0.20092516     1.02850
O2372       O  0.50177688  0.53335292  0.28780069    -0.85090
O2373       O  0.94751130  0.97983142  0.26978562    -0.82150
C2374       C  0.94449460  0.95830319  0.28892295     0.98390
O2375       O  0.96289451  0.94785736  0.28648607    -0.82180
O2376       O  0.51635364  0.94626233  0.27160783    -0.84790
C2377       C  0.53661029  0.96420672  0.29213084     1.02860
O2378       O  0.54725294  0.99317926  0.29004010    -0.77610
O2379       O  0.54985095  0.54865447  0.27398553    -0.77750
C2380       C  0.53052749  0.55125365  0.29211735     1.02820
Cr2381     Cr  0.98408628  0.51210249  0.24441805     1.93740
Cr2382     Cr  0.98554122  0.95110227  0.24443314     1.93210
Cr2383     Cr  0.54664695  0.51330008  0.24725432     1.39100
O2384       O  0.50548700  0.99226845  0.24534688    -1.22840
C2385       C  0.80700019  0.74498271  0.52622232    -0.05520
C2386       C  0.79756523  0.76682994  0.51980192     0.00400
C2387       C  0.81513182  0.79680672  0.53455250    -0.08170
C2388       C  0.84426196  0.80550277  0.54839272    -0.05550
C2389       C  0.85339205  0.78348939  0.55510262     0.00390
C2390       C  0.83200989  0.75191140  0.54749146    -0.08080
C2391       C  0.83246118  0.72468332  0.56363637     0.62300
H2392       H  0.79443258  0.72191488  0.51562043     0.13000
H2393       H  0.85941852  0.82968082  0.55481289     0.13010
C2394       C  0.80383509  0.81995351  0.53722833     0.62540
F2395       F  0.80287743  0.70333439  0.57430950    -0.22630
F2396       F  0.85145911  0.73355907  0.59135860    -0.19960
F2397       F  0.84181793  0.71033360  0.54072822    -0.19640
F2398       F  0.81279086  0.83533707  0.56753770    -0.19690
F2399       F  0.77185796  0.80539246  0.53588265    -0.20010
F2400       F  0.81661665  0.84166376  0.51205218    -0.22690
C2401       C  0.66065626  0.70594482  0.47069104    -0.05520
C2402       C  0.66164701  0.70385687  0.43584680     0.00400
C2403       C  0.69085450  0.71514048  0.42013655    -0.08170
C2404       C  0.71763702  0.72604548  0.44020039    -0.05550
C2405       C  0.71620726  0.72696546  0.47517968     0.00390
C2406       C  0.68750992  0.71913527  0.49028262    -0.08080
C2407       C  0.68429199  0.72560914  0.52660180     0.62300
H2408       H  0.63850900  0.69826068  0.48275946     0.13000
H2409       H  0.73977960  0.73310024  0.42861924     0.13010
C2410       C  0.69404975  0.71475404  0.38267339     0.62540
F2411       F  0.66348959  0.73625461  0.52953559    -0.22630
F2412       F  0.71205853  0.74833629  0.53996044    -0.19960
F2413       F  0.67330129  0.69855897  0.54481072    -0.19640
F2414       F  0.67567895  0.72453614  0.36707838    -0.19690
F2415       F  0.68539341  0.68494933  0.37251039    -0.20010
F2416       F  0.72437402  0.73425994  0.37269434    -0.22690
C2417       C  0.54626346  0.60027891  0.37136530    -0.05520
C2418       C  0.57312304  0.62783357  0.36184926     0.00400
C2419       C  0.58434140  0.63059292  0.32888523    -0.08170
C2420       C  0.56923704  0.60508638  0.30718845    -0.05550
C2421       C  0.54284913  0.57720911  0.31676592     0.00390
C2422       C  0.53068582  0.57487285  0.34927001    -0.08080
C2423       C  0.00203856  0.54558877  0.36092633     0.62300
H2424       H  0.53756433  0.59889216  0.39639536     0.13000
H2425       H  0.57811783  0.60678031  0.28218244     0.13010
C2426       C  0.61189779  0.66039984  0.31620411     0.62540
F2427       F  0.99556378  0.54740918  0.39412055    -0.22630
F2428       F  0.00656256  0.52052119  0.35721072    -0.19960
F2429       F  0.97660940  0.54074194  0.34234009    -0.19640
F2430       F  0.63878207  0.66406747  0.33023187    -0.19690
F2431       F  0.60861211  0.68566667  0.32421186    -0.20010
F2432       F  0.61484914  0.65999033  0.28198203    -0.22690
C2433       C  0.96572490  0.74585797  0.52877906    -0.05520
C2434       C  0.99760674  0.76788906  0.52888868     0.00400
C2435       C  0.00745966  0.79660978  0.54568256    -0.08170
C2436       C  0.98505575  0.80259035  0.55916685    -0.05550
C2437       C  0.95348085  0.77989674  0.56097145     0.00390
C2438       C  0.94420795  0.75006544  0.54735785    -0.08080
C2439       C  0.91273710  0.72159532  0.55250334     0.62300
H2440       H  0.95729368  0.72469871  0.51443183     0.13000
H2441       H  0.99275053  0.82570219  0.56848864     0.13010
C2442       C  0.54092879  0.82243231  0.54962824     0.62540
F2443       F  0.91614229  0.69614534  0.55913987    -0.22630
F2444       F  0.89531381  0.71563029  0.52380018    -0.19960
F2445       F  0.89738108  0.72502904  0.57926584    -0.19640
F2446       F  0.54646093  0.84686938  0.52893477    -0.19690
F2447       F  0.56199661  0.81305213  0.54265911    -0.20010
F2448       F  0.54608405  0.83293383  0.58225919    -0.22690
C2449       C  0.53376405  0.72739518  0.45052359    -0.05520
C2450       C  0.53850245  0.72706216  0.48519345     0.00400
C2451       C  0.55565592  0.71305644  0.49691362    -0.08170
C2452       C  0.56660302  0.69974984  0.47394678    -0.05550
C2453       C  0.56384710  0.70207536  0.43957604     0.00390
C2454       C  0.54681106  0.71572585  0.42735864    -0.08080
C2455       C  0.54210560  0.71761199  0.39032553     0.62300
H2456       H  0.51899418  0.73606105  0.44172433     0.13000
H2457       H  0.57908228  0.68852678  0.48299278     0.13010
C2458       C  0.56343919  0.71125793  0.53314600     0.62540
F2459       F  0.02775565  0.73472898  0.38374724    -0.22630
F2460       F  0.52360636  0.68807327  0.37756534    -0.19960
F2461       F  0.57040882  0.73161117  0.37416886    -0.19640
F2462       F  0.54398849  0.68162315  0.54504159    -0.19690
F2463       F  0.56096404  0.73231608  0.55307972    -0.20010
F2464       F  0.59382951  0.71772896  0.53583696    -0.22690
C2465       C  0.57752420  0.82371173  0.44495877    -0.05520
C2466       C  0.56159825  0.83960656  0.43699335     0.00400
C2467       C  0.53047663  0.82674931  0.44813362    -0.08170
C2468       C  0.51717850  0.79866936  0.46588866    -0.05550
C2469       C  0.53517709  0.78687802  0.48001700     0.00390
C2470       C  0.56683292  0.80080849  0.46984972    -0.08080
C2471       C  0.59181136  0.79620474  0.48607553     0.62300
H2472       H  0.60093546  0.83275358  0.43567625     0.13000
H2473       H  0.49270218  0.78733072  0.47168635     0.13010
C2474       C  0.51162595  0.84304555  0.44454733     0.62540
F2475       F  0.61753716  0.82490064  0.49288002    -0.22630
F2476       F  0.60066311  0.78037201  0.46446120    -0.19960
F2477       F  0.58273886  0.78064679  0.51585332    -0.19640
F2478       F  0.50131527  0.84061132  0.41215293    -0.19690
F2479       F  0.52922861  0.87397872  0.45362727    -0.20010
F2480       F  0.48574637  0.82994525  0.46497111    -0.22690
C2481       C  0.65549244  0.93767711  0.48346618    -0.05520
C2482       C  0.65814165  0.94082427  0.44883063     0.00400
C2483       C  0.68813353  0.95670871  0.43439842    -0.08170
C2484       C  0.71434750  0.96842836  0.45558054    -0.05550
C2485       C  0.71155382  0.96482371  0.49053032     0.00390
C2486       C  0.68117623  0.94815260  0.50439807    -0.08080
C2487       C  0.67358267  0.94049091  0.54094929     0.62300
H2488       H  0.63250553  0.92567315  0.49446335     0.13000
H2489       H  0.73720767  0.48264933  0.44508835     0.13010
C2490       C  0.69274703  0.96282384  0.39724943     0.62540
F2491       F  0.65894997  0.95590898  0.55303517    -0.22630
F2492       F  0.69906666  0.94825771  0.56025991    -0.19960
F2493       F  0.65380800  0.90881172  0.54434706    -0.19640
F2494       F  0.68458919  0.98465671  0.38854404    -0.19690
F2495       F  0.67478975  0.93570932  0.37950951    -0.20010
F2496       F  0.72334395  0.47404788  0.38807073    -0.22690
C2497       C  0.56304228  0.91378782  0.33765019    -0.05520
C2498       C  0.57514198  0.93046214  0.36733531     0.00400
C2499       C  0.57251726  0.95728084  0.37327029    -0.08170
C2500       C  0.56069706  0.96790214  0.34768736    -0.05550
C2501       C  0.54851685  0.95108760  0.31794656     0.00390
C2502       C  0.54810479  0.92237055  0.31378785    -0.08080
C2503       C  0.53156832  0.90006634  0.28504884     0.62300
H2504       H  0.56472263  0.89314822  0.33366867     0.13000
H2505       H  0.56005543  0.98916745  0.35131373     0.13010
C2506       C  0.58045512  0.97408146  0.40664577     0.62540
F2507       F  0.53503531  0.87413431  0.28604204    -0.22630
F2508       F  0.54331852  0.91466553  0.25507408    -0.19960
F2509       F  0.50012622  0.88970713  0.28653308    -0.19640
F2510       F  0.61198782  0.99453893  0.40873046    -0.19690
F2511       F  0.57126402  0.95309179  0.43263489    -0.20010
F2512       F  0.56542133  0.99095459  0.41056253    -0.22690
C2513       C  0.71855636  0.52307545  0.50995681    -0.05520
C2514       C  0.73382023  0.51102152  0.52936277     0.00400
C2515       C  0.73923113  0.51994023  0.56381050    -0.08170
C2516       C  0.73109494  0.54158328  0.57582690    -0.05550
C2517       C  0.71375276  0.55084694  0.55667127     0.00390
C2518       C  0.70577873  0.53996260  0.52375311    -0.08080
C2519       C  0.68216233  0.54419545  0.50396006     0.62300
H2520       H  0.71468413  0.01740365  0.48381311     0.13000
H2521       H  0.73634059  0.54965827  0.60141709     0.13010
C2522       C  0.75139561  0.50703481  0.59012315     0.62540
F2523       F  0.67449545  0.02789545  0.47422623    -0.22630
F2524       F  0.69375237  0.57515533  0.49695288    -0.19960
F2525       F  0.65505070  0.03304297  0.52243038    -0.19640
F2526       F  0.78098671  0.52978853  0.59916022    -0.19690
F2527       F  0.75168422  0.48083487  0.57998193    -0.20010
F2528       F  0.73265355  0.49887570  0.61805949    -0.22690
C2529       C  0.71567192  0.64946236  0.52092406    -0.05520
C2530       C  0.71503361  0.65057972  0.55574486     0.00400
C2531       C  0.72704261  0.67985484  0.57181654    -0.08170
C2532       C  0.73749147  0.70667603  0.55187854    -0.05550
C2533       C  0.73767672  0.70502708  0.51683907     0.00390
C2534       C  0.72904032  0.67616369  0.50149460    -0.08080
C2535       C  0.73479400  0.67238939  0.46509230     0.62300
H2536       H  0.70686838  0.62730732  0.50860474     0.13000
H2537       H  0.74526798  0.72903371  0.56351084     0.13010
C2538       C  0.72916208  0.68306220  0.60945591     0.62540
F2539       F  0.74445873  0.65079081  0.46198306    -0.22630
F2540       F  0.75788955  0.69971845  0.45156368    -0.19960
F2541       F  0.70765724  0.66198062  0.44715697    -0.19640
F2542       F  0.74221301  0.66650807  0.62250955    -0.19690
F2543       F  0.69995312  0.67206300  0.62278248    -0.20010
F2544       F  0.74739213  0.71377303  0.61918992    -0.22690
C2545       C  0.89342941  0.92362437  0.36623346    -0.05520
C2546       C  0.86657376  0.92430245  0.35671743     0.00400
C2547       C  0.86471295  0.93412310  0.32420134    -0.08170
C2548       C  0.89072866  0.94492981  0.30315818    -0.05550
C2549       C  0.91792789  0.94486550  0.31280841     0.00390
C2550       C  0.91892278  0.93301255  0.34464302    -0.08080
C2551       C  0.94643802  0.93005535  0.35598894     0.62300
H2552       H  0.89400152  0.91510565  0.39087918     0.13000
H2553       H  0.88979237  0.95322267  0.27850843     0.13010
C2554       C  0.83508384  0.93199453  0.31116174     0.62540
F2555       F  0.94336478  0.92011465  0.38867598    -0.22630
F2556       F  0.97343111  0.95843797  0.35377161    -0.19960
F2557       F  0.94891007  0.90860824  0.33618032    -0.19640
F2558       F  0.82979089  0.95354814  0.32705527    -0.19690
F2559       F  0.81025267  0.90250202  0.31667157    -0.20010
F2560       F  0.83666016  0.93770100  0.27727489    -0.22690
C2561       C  0.81549067  0.82640794  0.43477246    -0.05520
C2562       C  0.79562317  0.83872344  0.43262331     0.00400
C2563       C  0.76515406  0.82121407  0.44569573    -0.08170
C2564       C  0.75820414  0.79590322  0.46630671    -0.05550
C2565       C  0.77845927  0.78407447  0.46958228     0.00390
C2566       C  0.80645678  0.79813908  0.45087203    -0.08080
C2567       C  0.82796119  0.78490205  0.44780672     0.62300
H2568       H  0.83855553  0.83910274  0.42419266     0.13000
H2569       H  0.73671148  0.78558802  0.48017516     0.13010
C2570       C  0.73900113  0.82766133  0.43843103     0.62540
F2571       F  0.83891037  0.78849294  0.41549047    -0.22630
F2572       F  0.81311355  0.75354171  0.45478580    -0.19960
F2573       F  0.85295141  0.80064740  0.46907413    -0.19640
F2574       F  0.74570423  0.84819556  0.41238793    -0.19690
F2575       F  0.73255772  0.83930603  0.46672035    -0.20010
F2576       F  0.71267517  0.80016968  0.42954317    -0.22690
C2577       C  0.76989919  0.92433994  0.45698359    -0.05520
C2578       C  0.79950209  0.94070148  0.44186857     0.00400
C2579       C  0.81686096  0.97346390  0.44688203    -0.08170
C2580       C  0.80296110  0.98779386  0.46458581    -0.05550
C2581       C  0.77557921  0.97095116  0.48345905     0.00390
C2582       C  0.75975093  0.93807097  0.48084035    -0.08080
C2583       C  0.73476000  0.91607328  0.50461925     0.62300
H2584       H  0.75558711  0.89959268  0.45280462     0.13000
H2585       H  0.81508165  0.51282568  0.46565001     0.13010
C2586       C  0.85051758  0.99401430  0.43641768     0.62540
F2587       F  0.74025096  0.89236967  0.51354694    -0.22630
F2588       F  0.70609928  0.90307511  0.48924011    -0.19960
F2589       F  0.73440953  0.93059427  0.53370822    -0.19640
F2590       F  0.85183965  0.00315627  0.40368761    -0.19690
F2591       F  0.86713818  0.97879836  0.44040227    -0.20010
F2592       F  0.86511405  0.52058871  0.45589100    -0.22690
C2593       C  0.97102865  0.67565447  0.57703827    -0.05520
C2594       C  0.95401195  0.64936955  0.55694711     0.00400
C2595       C  0.95727778  0.65199767  0.52193580    -0.08170
C2596       C  0.97758335  0.68106880  0.50836329    -0.05550
C2597       C  0.99644848  0.70730926  0.52814987     0.00390
C2598       C  0.99253412  0.70475241  0.56351662    -0.08080
C2599       C  0.50990837  0.73064826  0.58871983     0.62300
H2600       H  0.96809242  0.67313690  0.60383724     0.13000
H2601       H  0.97941023  0.68338764  0.48154484     0.13010
C2602       C  0.94048092  0.62413667  0.49870944     0.62540
F2603       F  0.48900049  0.73663161  0.60506361    -0.22630
F2604       F  0.53258223  0.75793825  0.57494368    -0.19960
F2605       F  0.52400946  0.72120269  0.61194183    -0.19640
F2606       F  0.90914614  0.61406289  0.49841387    -0.19690
F2607       F  0.94504757  0.60022568  0.50909716    -0.20010
F2608       F  0.95108618  0.63131239  0.46624468    -0.22690
C2609       C  0.84184887  0.56255690  0.53556553    -0.05520
C2610       C  0.85229371  0.55078090  0.56157446     0.00400
C2611       C  0.83179658  0.51970814  0.57208584    -0.08170
C2612       C  0.80651025  0.50047627  0.55170214    -0.05550
C2613       C  0.79545489  0.51259390  0.52721343     0.00390
C2614       C  0.81343554  0.54446707  0.51899765    -0.08080
C2615       C  0.80564092  0.56031921  0.49132311     0.62300
H2616       H  0.85617432  0.58583729  0.52645457     0.13000
H2617       H  0.79351326  0.97576696  0.55700578     0.13010
C2618       C  0.83297984  0.00633302  0.60580845     0.62540
F2619       F  0.80153973  0.58354523  0.50503766    -0.22630
F2620       F  0.77928520  0.54048774  0.47358302    -0.19960
F2621       F  0.83001300  0.57360464  0.46896049    -0.19640
F2622       F  0.85142217  0.52919458  0.62844780    -0.19690
F2623       F  0.84331331  0.98535681  0.60195230    -0.20010
F2624       F  0.80353810  0.99059326  0.61942784    -0.22690
C2625       C  0.92067241  0.86082565  0.65196628    -0.05520
C2626       C  0.94069465  0.85625123  0.63106389     0.00400
C2627       C  0.97274345  0.87967387  0.63080865    -0.08170
C2628       C  0.98370745  0.90364556  0.65477489    -0.05550
C2629       C  0.96351855  0.90803890  0.67548046     0.00390
C2630       C  0.93096887  0.88769368  0.67152161    -0.08080
C2631       C  0.90665482  0.89477512  0.68536094     0.62300
H2632       H  0.89632288  0.84342122  0.65251614     0.13000
H2633       H  0.50840433  0.91981651  0.65655269     0.13010
C2634       C  0.99581265  0.88141035  0.60493267     0.62540
F2635       F  0.87779473  0.87590995  0.67112875    -0.22630
F2636       F  0.91496562  0.92516953  0.67817164    -0.19960
F2637       F  0.90353695  0.89018364  0.71936571    -0.19640
F2638       F  0.48161248  0.87026914  0.57441517    -0.19690
F2639       F  0.00960453  0.86483800  0.61576131    -0.20010
F2640       F  0.51902280  0.91189158  0.59999924    -0.22690
C2641       C  0.61703024  0.53855773  0.68282807    -0.05520
C2642       C  0.58967356  0.53901050  0.67556209     0.00400
C2643       C  0.58757873  0.55201786  0.64481383    -0.08170
C2644       C  0.61299914  0.56391859  0.62273869    -0.05550
C2645       C  0.64043351  0.56388531  0.63065429     0.00390
C2646       C  0.64290619  0.55183692  0.66170215    -0.08080
C2647       C  0.67307677  0.55419169  0.67349810     0.62300
H2648       H  0.61830601  0.52792214  0.70563707     0.13000
H2649       H  0.61170375  0.57342447  0.59894427     0.13010
C2650       C  0.55838416  0.55220478  0.63448361     0.62540
F2651       F  0.67226139  0.54789829  0.70713871    -0.22630
F2652       F  0.69758782  0.58394436  0.66832310    -0.19960
F2653       F  0.67846561  0.53313705  0.65662488    -0.19640
F2654       F  0.55388332  0.57207884  0.65481269    -0.19690
F2655       F  0.53328629  0.52250507  0.63691557    -0.20010
F2656       F  0.55991289  0.56196725  0.60191309    -0.22690
C2657       C  0.96017804  0.55729734  0.68100833    -0.05520
C2658       C  0.96328369  0.53154131  0.67252023     0.00400
C2659       C  0.95658929  0.52002636  0.63915460    -0.08170
C2660       C  0.94673344  0.53473870  0.61613524    -0.05550
C2661       C  0.94397736  0.56058177  0.62488335     0.00390
C2662       C  0.94996886  0.57157097  0.65817253    -0.08080
C2663       C  0.94425445  0.59733717  0.67021050     0.62300
H2664       H  0.96549225  0.56612284  0.70625191     0.13000
H2665       H  0.94133219  0.52607804  0.59076718     0.13010
C2666       C  0.95988249  0.49328616  0.62545339     0.62540
F2667       F  0.94660972  0.60065996  0.70451788    -0.22630
F2668       F  0.91471898  0.59067668  0.66125926    -0.19960
F2669       F  0.96580849  0.62537868  0.65641503    -0.19640
F2670       F  0.93089896  0.96905284  0.61699134    -0.19690
F2671       F  0.47350666  0.48228398  0.64719450    -0.20010
F2672       F  0.97800072  0.50298878  0.59703173    -0.22690
C2673       C  0.54786765  0.60706469  0.12957966    -0.05520
C2674       C  0.57666225  0.63335924  0.13740375     0.00400
C2675       C  0.59303215  0.63225968  0.16599589    -0.08170
C2676       C  0.58077556  0.60440218  0.18427945    -0.05550
C2677       C  0.55159661  0.57878887  0.17701168     0.00390
C2678       C  0.53457902  0.58020820  0.14951479    -0.08080
C2679       C  0.00246514  0.55348460  0.14133502     0.62300
H2680       H  0.53560989  0.60773600  0.10761583     0.13000
H2681       H  0.59327738  0.60323764  0.20583872     0.13010
C2682       C  0.62261516  0.65994351  0.17912107     0.62540
F2683       F  0.99116969  0.55817442  0.11172109    -0.22630
F2684       F  0.98214372  0.55043885  0.16642375    -0.19960
F2685       F  0.00333877  0.52622812  0.13843611    -0.19640
F2686       F  0.62627796  0.68794829  0.16828895    -0.19690
F2687       F  0.64783827  0.65738724  0.16925658    -0.20010
F2688       F  0.62204246  0.66050122  0.21354857    -0.22690
C2689       C  0.67677210  0.73721796  0.04746026    -0.05520
C2690       C  0.65992691  0.70592406  0.05765604     0.00400
C2691       C  0.66980123  0.68529704  0.04620843    -0.08170
C2692       C  0.69738920  0.69764858  0.02812200    -0.05550
C2693       C  0.71217187  0.72778140  0.01425291     0.00390
C2694       C  0.70021234  0.74757592  0.02312831    -0.08080
C2695       C  0.70806679  0.77809031  0.00659049     0.62300
H2696       H  0.66934491  0.75317114  0.05596066     0.13000
H2697       H  0.70649352  0.68245892  0.02353429     0.13010
C2698       C  0.65107813  0.65004173  0.04998107     0.62540
F2699       F  0.68090749  0.77670058  0.99615006    -0.22630
F2700       F  0.72659226  0.78475162  0.97897303    -0.19960
F2701       F  0.72249129  0.80207963  0.02937072    -0.19640
F2702       F  0.61973046  0.63911254  0.04567854    -0.19690
F2703       F  0.65643752  0.64148430  0.08088792    -0.20010
F2704       F  0.65944450  0.63537170  0.02615610    -0.22690
C2705       C  0.54624033  0.71672947  0.07752151    -0.05520
C2706       C  0.55885466  0.70179420  0.05901660     0.00400
C2707       C  0.55199543  0.69618140  0.02469580    -0.08170
C2708       C  0.53506773  0.70828757  0.00966541    -0.05550
C2709       C  0.52000297  0.72110311  0.02808965     0.00390
C2710       C  0.52554057  0.72507510  0.06325722    -0.08080
C2711       C  0.51019817  0.73658198  0.08763504     0.62300
H2712       H  0.55165568  0.72074043  0.10387294     0.13000
H2713       H  0.53210194  0.70613015  0.98290439     0.13010
C2714       C  0.56035192  0.67558648  0.00414761     0.62540
F2715       F  0.49858006  0.71636632  0.11432569    -0.22630
F2716       F  0.48583268  0.73844882  0.07412304    -0.19960
F2717       F  0.53206878  0.76557260  0.09945802    -0.19640
F2718       F  0.55339937  0.64901591  0.02180734    -0.19690
F2719       F  0.59150162  0.69128098  0.99621093    -0.20010
F2720       F  0.54371301  0.66624340  0.97460778    -0.22690
C2721       C  0.70868176  0.94983740  0.02589713    -0.05520
C2722       C  0.71863194  0.98123545  0.01941556     0.00400
C2723       C  0.70210767  0.99448902  0.03470677    -0.08170
C2724       C  0.67356072  0.97468356  0.05021278    -0.05550
C2725       C  0.66386946  0.94332659  0.05641431     0.00390
C2726       C  0.68428735  0.93236726  0.04786696    -0.08080
C2727       C  0.68338438  0.90434483  0.06362201     0.62300
H2728       H  0.72048457  0.93880113  0.01479142     0.13000
H2729       H  0.65896374  0.98400658  0.05776501     0.13010
C2730       C  0.71357689  0.52910464  0.03516728     0.62540
F2731       F  0.67500382  0.88121593  0.04012632    -0.22630
F2732       F  0.66350216  0.89336830  0.09052099    -0.19960
F2733       F  0.71259941  0.91257022  0.07535399    -0.19640
F2734       F  0.70071528  0.53670823  0.00890180    -0.19690
F2735       F  0.74557000  0.54633329  0.03340351    -0.20010
F2736       F  0.70499855  0.53729317  0.06460637    -0.22690
C2737       C  0.54992576  0.79205691  0.02644217    -0.05520
C2738       C  0.51814914  0.78204925  0.02615625     0.00400
C2739       C  0.50827668  0.80200776  0.04028328    -0.08170
C2740       C  0.53069567  0.83143947  0.05191802    -0.05550
C2741       C  0.56227078  0.84057422  0.05451672     0.00390
C2742       C  0.57166669  0.81942581  0.04280495    -0.08080
C2743       C  0.60390887  0.82421657  0.04688413     0.62300
H2744       H  0.55806519  0.77834528  0.01361287     0.13000
H2745       H  0.52317892  0.84759240  0.05925243     0.13010
C2746       C  0.97459842  0.79403771  0.04244334     0.62540
F2747       F  0.60298949  0.79597329  0.04928403    -0.22630
F2748       F  0.61758613  0.84046348  0.07569555    -0.19960
F2749       F  0.62140921  0.83959848  0.01930939    -0.19640
F2750       F  0.95486831  0.76260575  0.04612504    -0.19690
F2751       F  0.96658359  0.80425503  0.01419916    -0.20010
F2752       F  0.97014835  0.80831519  0.06985841    -0.22690
C2753       C  0.57118913  0.94285406  0.18690223    -0.05520
C2754       C  0.54881170  0.94996564  0.17537290     0.00400
C2755       C  0.54086315  0.94603108  0.14108023    -0.08170
C2756       C  0.55489213  0.93398283  0.11982569    -0.05550
C2757       C  0.57633792  0.92581665  0.13184417     0.00390
C2758       C  0.58431856  0.92981850  0.16595641    -0.08080
C2759       C  0.60584332  0.91941866  0.18024893     0.62300
H2760       H  0.57825530  0.94740286  0.21270741     0.13000
H2761       H  0.54931858  0.93090361  0.09350537     0.13010
C2762       C  0.51913733  0.95614694  0.12670114     0.62540
F2763       F  0.60859609  0.92303011  0.21450882    -0.22630
F2764       F  0.63507049  0.93664192  0.16654776    -0.19960
F2765       F  0.59431425  0.88831109  0.17303293    -0.19640
F2766       F  0.52929722  0.48659379  0.13535791    -0.19690
F2767       F  0.48949408  0.93757135  0.13892296    -0.20010
F2768       F  0.51773255  0.95404810  0.09228020    -0.22690
C2769       C  0.58076169  0.53143739  0.85317611    -0.05520
C2770       C  0.58875046  0.53232982  0.81947238     0.00400
C2771       C  0.62038107  0.54622405  0.81051088    -0.08170
C2772       C  0.64315778  0.55954459  0.83536174    -0.05550
C2773       C  0.63542679  0.55899570  0.86894540     0.00390
C2774       C  0.60374464  0.54447769  0.87833139    -0.08080
C2775       C  0.59433296  0.54213621  0.91461916     0.62300
H2776       H  0.55642009  0.52067101  0.85956353     0.13000
H2777       H  0.66747447  0.57029266  0.82882607     0.13010
C2778       C  0.62995339  0.54584098  0.77488793     0.62540
F2779       F  0.56246376  0.52481379  0.91848194    -0.22830
F2780       F  0.60429763  0.57144414  0.92748634    -0.19960
F2781       F  0.60746404  0.52800624  0.93273303    -0.19640
F2782       F  0.62083735  0.56255025  0.75508832    -0.19690
F2783       F  0.61603019  0.51537452  0.76396179    -0.20010
F2784       F  0.66174304  0.55884878  0.77177665    -0.22690
C2785       C  0.70270856  0.66679423  0.92849371    -0.05520
C2786       C  0.71096453  0.64649340  0.94366767     0.00400
C2787       C  0.73097350  0.65787076  0.97208643    -0.08170
C2788       C  0.74531220  0.68975037  0.97993743    -0.05550
C2789       C  0.73302297  0.70801224  0.96829268     0.00390
C2790       C  0.70996693  0.69537039  0.94285458    -0.08080
C2791       C  0.69106911  0.70945074  0.93003077     0.62300
H2792       H  0.68849834  0.65971370  0.90628433     0.13000
H2793       H  0.76163592  0.69861622  0.00051344     0.13010
C2794       C  0.73402121  0.63737280  0.99821758     0.62540
F2795       F  0.69733380  0.71649635  0.89660862    -0.22630
F2796       F  0.69661513  0.73584375  0.94664364    -0.19960
F2797       F  0.65984215  0.68798988  0.93351638    -0.19640
F2798       F  0.76224458  0.63865727  0.99475192    -0.19690
F2799       F  0.71012678  0.60688100  0.99648428    -0.20010
F2800       F  0.73286004  0.64790078  0.02986403    -0.22690
C2801       C  0.70000452  0.51881411  0.93166817    -0.05520
C2802       C  0.71996167  0.55088466  0.92690066     0.00400
C2803       C  0.75100873  0.56405634  0.93830893    -0.08170
C2804       C  0.75793085  0.54758336  0.96179002    -0.05550
C2805       C  0.73742440  0.51579964  0.96784481     0.00390
C2806       C  0.70937250  0.50061947  0.94924649    -0.08080
C2807       C  0.68809718  0.96565176  0.94821383     0.62300
H2808       H  0.67637852  0.50759202  0.92261364     0.13000
H2809       H  0.77989264  0.55972320  0.97479160     0.13010
C2810       C  0.77784270  0.59400153  0.92500190     0.62540
F2811       F  0.66484530  0.95690575  0.97160476    -0.22630
F2812       F  0.70404009  0.45007862  0.95394235    -0.19960
F2813       F  0.67455125  0.95656477  0.91703477    -0.19640
F2814       F  0.78994935  0.61610064  0.95002506    -0.19690
F2815       F  0.76925873  0.60556921  0.89828280    -0.20010
F2816       F  0.80087991  0.58833159  0.91404323    -0.22690
C2817       C  0.87345665  0.90922823  0.14803151    -0.05520
C2818       C  0.87347924  0.92912775  0.12333912     0.00400
C2819       C  0.89926212  0.95980715  0.12135741    -0.08170
C2820       C  0.92188748  0.97033528  0.14668230    -0.05550
C2821       C  0.92175969  0.95050605  0.17171260     0.00390
C2822       C  0.89763681  0.91866378  0.17127901    -0.08080
C2823       C  0.89662564  0.89418085  0.19486014     0.62300
H2824       H  0.85378370  0.88587979  0.14924082     0.13000
H2825       H  0.94055092  0.99422608  0.14609914     0.13010
C2826       C  0.90476592  0.98194579  0.09274858     0.62540
F2827       F  0.87149209  0.86492765  0.18867724    -0.22630
F2828       F  0.89433482  0.90181523  0.22748515    -0.19960
F2829       F  0.92306918  0.89200496  0.19083144    -0.19640
F2830       F  0.89691967  0.00377394  0.10265121    -0.19690
F2831       F  0.88810924  0.96677565  0.06450768    -0.20010
F2832       F  0.93579274  0.49729668  0.08401322    -0.22690
C2833       C  0.78484392  0.81637095  0.06738059    -0.05520
C2834       C  0.79561792  0.84435958  0.04984802     0.00400
C2835       C  0.79827042  0.84426239  0.01473384    -0.08170
C2836       C  0.78758975  0.81596897  0.99833883    -0.05550
C2837       C  0.77544402  0.78766482  0.01535241     0.00390
C2838       C  0.77579575  0.78799990  0.05078032    -0.08080
C2839       C  0.76872812  0.76021287  0.07231971     0.62300
H2840       H  0.78430818  0.81685008  0.09437084     0.13000
H2841       H  0.78838224  0.81571300  0.97138426     0.13010
C2842       C  0.81073228  0.87329807  0.99364946     0.62540
F2843       F  0.79315179  0.76827730  0.09411053    -0.22630
F2844       F  0.76469270  0.73480683  0.05425066    -0.19960
F2845       F  0.74216421  0.75178449  0.09060379    -0.19640
F2846       F  0.83563133  0.89830392  0.00895554    -0.19690
F2847       F  0.78707557  0.87955699  0.98840216    -0.20010
F2848       F  0.82083464  0.86930008  0.96286783    -0.22690
C2849       C  0.79820375  0.94324319  0.02222257    -0.05520
C2850       C  0.79563872  0.94265491  0.05692893     0.00400
C2851       C  0.78351235  0.95989085  0.07251528    -0.08170
C2852       C  0.77554503  0.97814326  0.05230174    -0.05550
C2853       C  0.77754212  0.97785212  0.01721660     0.00390
C2854       C  0.78687841  0.95807816  0.00209758    -0.08080
C2855       C  0.78440150  0.95115558  0.96497135     0.62300
H2856       H  0.80841426  0.93095808  0.01050598     0.13000
H2857       H  0.76779325  0.99279047  0.06373112     0.13010
C2858       C  0.77868821  0.95882120  0.10989242     0.62540
F2859       F  0.77748749  0.92092494  0.95931814    -0.22630
F2860       F  0.81232678  0.97086430  0.94968097    -0.19960
F2861       F  0.76079538  0.95391845  0.95044789    -0.19640
F2862       F  0.80699021  0.97401495  0.12599717    -0.19690
F2863       F  0.76250919  0.92829664  0.12053536    -0.20010
F2864       F  0.76192952  0.97300529  0.11899074    -0.22690
C2865       C  0.93974015  0.85282788  0.83266556    -0.05520
C2866       C  0.93668948  0.85970522  0.86577531     0.00400
C2867       C  0.94654950  0.89086230  0.87506471    -0.08170
C2868       C  0.95766984  0.91387717  0.85014009    -0.05550
C2869       C  0.96085427  0.90701331  0.81694037     0.00390
C2870       C  0.95219451  0.87596602  0.80806007    -0.08080
C2871       C  0.95551600  0.86684372  0.77280033     0.62300
H2872       H  0.93264134  0.82897927  0.82639294     0.13000
H2873       H  0.96483398  0.93770993  0.85657326     0.13010
C2874       C  0.94685339  0.90010575  0.91124678     0.62540
F2875       F  0.94238403  0.83500064  0.76918193    -0.22630
F2876       F  0.98652688  0.88037203  0.76449639    -0.19960
F2877       F  0.94080617  0.87643279  0.75079744    -0.19640
F2878       F  0.96259524  0.88940994  0.93047448    -0.19690
F2879       F  0.91689686  0.88764560  0.92295440    -0.20010
F2880       F  0.96148629  0.93204848  0.91513516    -0.22690
C2881       C  0.82986799  0.77876244  0.92663617    -0.05520
C2882       C  0.85587022  0.78830154  0.94710138     0.00400
C2883       C  0.85192823  0.78558310  0.98212424    -0.08170
C2884       C  0.82170234  0.77135131  0.99495571    -0.05550
C2885       C  0.79576852  0.76428510  0.97487177     0.00390
C2886       C  0.80028487  0.76905246  0.93981789    -0.08080
C2887       C  0.77589540  0.76618588  0.91526215     0.62300
H2888       H  0.83313410  0.78064607  0.89985654     0.13000
H2889       H  0.81853447  0.76839199  0.02165920     0.13010
C2890       C  0.87902133  0.79992752  0.00651361     0.62540
F2891       F  0.78923123  0.78874522  0.89085183    -0.22630
F2892       F  0.75340850  0.77028917  0.93019724    -0.19960
F2893       F  0.76257505  0.73737302  0.90006838    -0.19640
F2894       F  0.90345798  0.82699927  0.99382270    -0.19690
F2895       F  0.88892660  0.77908724  0.01343741    -0.20010
F2896       F  0.87037749  0.80762980  0.03623521    -0.22690
C2897       C  0.93584039  0.75185711  0.94521487    -0.05520
C2898       C  0.95227789  0.78254662  0.93304515     0.00400
C2899       C  0.98477858  0.80016956  0.93958223    -0.08170
C2900       C  0.99794915  0.78689060  0.96000503    -0.05550
C2901       C  0.97974012  0.75978020  0.97872169     0.00390
C2902       C  0.94752950  0.74187595  0.97122374    -0.08080
C2903       C  0.92344888  0.71413611  0.99082514     0.62300
H2904       H  0.91170239  0.73719784  0.93824514     0.13000
H2905       H  0.52279741  0.79918168  0.96386528     0.13010
C2906       C  0.50596852  0.83311841  0.92712447     0.62540
F2907       F  0.89938152  0.71910192  0.99953027    -0.22630
F2908       F  0.93478866  0.70906228  0.01990022    -0.19960
F2909       F  0.91161504  0.68773425  0.97117580    -0.19640
F2910       F  0.49389825  0.85198499  0.93515928    -0.19690
F2911       F  0.00985185  0.83273336  0.89308563    -0.20010
F2912       F  0.53521292  0.84649341  0.94138003    -0.22690
C2913       C  0.94906799  0.64366432  0.97360399    -0.05520
C2914       C  0.95089621  0.64891813  0.93926636     0.00400
C2915       C  0.96697813  0.67956558  0.92703312    -0.08170
C2916       C  0.98140606  0.70415870  0.95013125    -0.05550
C2917       C  0.97758368  0.69907801  0.98489418     0.00390
C2918       C  0.96058199  0.66791235  0.99667911    -0.08080
C2919       C  0.95367306  0.65822248  0.03297896     0.62300
H2920       H  0.93680628  0.61989522  0.98258331     0.13000
H2921       H  0.99625584  0.72750582  0.94108164     0.13010
C2922       C  0.96849210  0.68615773  0.89004014     0.62540
F2923       F  0.92266790  0.63597484  0.03639621    -0.22630
F2924       F  0.95912046  0.68224157  0.05401507    -0.19960
F2925       F  0.97153109  0.64557655  0.04306244    -0.19640
F2926       F  0.93878469  0.67264009  0.87707861    -0.19690
F2927       F  0.98467327  0.67410068  0.87396372    -0.20010
F2928       F  0.98320202  0.71772499  0.88364504    -0.22690
C2929       C  0.85531793  0.55579683  0.97117281    -0.05520
C2930       C  0.85378465  0.55358316  0.93633934     0.00400
C2931       C  0.82464876  0.53634783  0.92045907    -0.08170
C2932       C  0.79806957  0.51992018  0.94046156    -0.05550
C2933       C  0.79982748  0.52136103  0.97556955     0.00390
C2934       C  0.82874005  0.54150379  0.99094002    -0.08080
C2935       C  0.83239998  0.54904371  0.02792678     0.62300
H2936       H  0.87772681  0.56975704  0.98304409     0.13000
H2937       H  0.77581460  0.50535358  0.92874236     0.13010
C2938       C  0.82156823  0.53567781  0.88282692     0.62540
F2939       F  0.83978119  0.52924034  0.04444085    -0.22630
F2940       F  0.80570668  0.54664904  0.04126349    -0.19960
F2941       F  0.85600512  0.57928956  0.03331888    -0.19640
F2942       F  0.83517962  0.52002324  0.86886021    -0.19690
F2943       F  0.83594468  0.56570491  0.87065777    -0.20010
F2944       F  0.79081249  0.52086644  0.87288049    -0.22690
C2945       C  0.92413550  0.54855581  0.83741264    -0.05520
C2946       C  0.94110091  0.56216569  0.86651601     0.00400
C2947       C  0.96935961  0.56240723  0.87201984    -0.08170
C2948       C  0.98054878  0.55080410  0.84682813    -0.05550
C2949       C  0.96343872  0.53695427  0.81763476     0.00390
C2950       C  0.93427252  0.53538097  0.81307526    -0.08080
C2951       C  0.91372958  0.52052508  0.78266342     0.62300
H2952       H  0.90256494  0.54851577  0.83383900     0.13000
H2953       H  0.50256164  0.55173399  0.85045724     0.13010
C2954       C  0.98797756  0.57401225  0.90407218     0.62540
F2955       F  0.88834601  0.52484954  0.78221180    -0.22630
F2956       F  0.90255794  0.98885209  0.78266798    -0.19960
F2957       F  0.93042509  0.53351954  0.75390971    -0.19640
F2958       F  0.96964498  0.57210381  0.93085048    -0.19690
F2959       F  0.01127774  0.60451055  0.90003781    -0.20010
F2960       F  0.50141653  0.55625455  0.91178638    -0.22690
loop_ 
_geom_bond_atom_site_label_1 
_geom_bond_atom_site_label_2 
_geom_bond_distance 
_geom_bond_site_symmetry_2 
_ccdc_geom_bond_type 
C1            C2   1.408       .  A
C1            C6   1.409       .  A
C1          C726   1.485       .  S
C2            C3   1.403       .  A
C2            H7   1.081       .  S
C3            C4   1.397       .  A
C3          C694   1.475       .  S
C4            C5   1.395       .  A
C4            H8   1.086       .  S
C5            C6   1.400       .  A
C5          C710   1.479       .  S
C6            H9   1.082       .  S
C10          C11   1.407       .  A
C10          C15   1.402       .  A
C10         C646   1.485       .  S
C11          C12   1.408       .  A
C11          H16   1.074       .  S
C12          C13   1.409       .  A
C12         C678   1.506       .  S
C13          C14   1.394       .  A
C13          H17   1.078       .  S
C14          C15   1.402       .  A
C14         C662   1.484       .  S
C15          H18   1.083       .  S
C19          C20   1.409       .  A
C19          C24   1.410       .  A
C19         C598   1.494       .  S
C20          C21   1.403       .  A
C20          H25   1.079       .  S
C21          C22   1.406       .  A
C21         C630   1.486       .  S
C22          C23   1.399       .  A
C22          H26   1.084       .  S
C23          C24   1.400       .  A
C23         C614   1.484       .  S
C24          H27   1.084       .  S
C28          C29   1.403       .  A
C28          C33   1.399       .  A
C28         C553   1.485       .  S
C29          C30   1.417       .  A
C29          H34   1.080       .  S
C30          C31   1.405       .  A
C30         C566   1.511       .  S
C31          C32   1.406       .  A
C31          H35   1.071       .  S
C32          C33   1.404       .  A
C32         C582   1.499       .  S
C33          H36   1.083       .  S
C37          C38   1.400       .  A
C37          C42   1.399       .  A
C37         C537   1.484       .  S
C38          C39   1.413       .  A
C38          H43   1.083       .  S
C39          C40   1.411       .  A
C39         C521   1.508       .  S
C40          C41   1.413       .  A
C40          H44   1.079       .  S
C41          C42   1.405       .  A
C41         C505   1.495       .  S
C42          H45   1.083       .  S
C46          C47   1.378       .  D
C46         C633   1.500   1_556  S
C46        C1453   1.500       .  S
C47         C502   1.509   1_556  S
C47        C1325   1.506       .  S
C48          C49   1.412       .  A
C48          C53   1.409       .  A
C48         C454   1.499       .  S
C49          C50   1.404       .  A
C49          H54   1.083       .  S
C50          C51   1.393       .  A
C50         C486   1.480       .  S
C51          C52   1.400       .  A
C51          H55   1.083       .  S
C52          C53   1.407       .  A
C52         C470   1.494       .  S
C53          H56   1.075       .  S
C57          C58   1.386       .  D
C57         C489   1.517   1_655  S
C57        C2177   1.508   1_554  S
C58         C518   1.511   1_655  S
C58        C2161   1.509   1_554  S
C59          C60   1.378       .  D
C59         C617   1.497   1_556  S
C59         C665   1.507       .  S
C60         C473   1.519   1_556  S
C60         C569   1.506       .  S
O61         Cr79   1.999       .  S
O61        C1549   1.266   1_455  A
O62         Cr79   2.007       .  S
O62         C803   1.265       .  A
C63         C422   1.495       .  S
C63          O64   1.258       .  A
C63         O802   1.265       .  A
O64         Cr80   1.984       .  S
O65         Cr80   1.999   1_655  S
O65        C1546   1.267       .  A
C66         C438   1.490       .  S
C66        O1545   1.267       .  A
C66         O807   1.263   1_545  A
O67         Cr81   1.990       .  S
O67         C806   1.263       .  A
O68         Cr81   1.987       .  S
O68          C69   1.258       .  A
C69         C409   1.496       .  S
C69        O1541   1.266       .  A
O70         Cr79   2.006   1_655  S
O70        C1558   1.264       .  A
O71         Cr79   1.996       .  S
O71         C812   1.264       .  A
C72         C550   1.483       .  S
C72          O73   1.265       .  A
C72         O811   1.264   1_545  A
O73         Cr80   2.005       .  S
O74         Cr80   1.992       .  S
O74        C1555   1.262   1_455  A
C75         C729   1.492       .  S
C75        O1554   1.262       .  A
C75         O816   1.258       .  A
O76         Cr81   1.988       .  S
O76         C815   1.258       .  A
O77         Cr81   1.991       .  S
O77          C78   1.265       .  A
C78         C649   1.486       .  S
C78        O1550   1.264       .  A
Cr79         O82   1.774       .  S
Cr80        O822   1.774   1_545  S
Cr81       O1562   1.773       .  S
O82        Cr820   1.774       .  S
O82       Cr1561   1.773   1_455  S
C83          C84   1.401       .  A
C83          C88   1.398       .  A
C83         C441   1.486       .  S
C84          C85   1.415       .  A
C84          H89   1.074       .  S
C85          C86   1.413       .  A
C85         C390   1.515       .  S
C86          C87   1.400       .  A
C86          H90   1.079       .  S
C87          C88   1.399       .  A
C87         C374   1.477       .  S
C88          H91   1.084       .  S
C92          C93   1.412       .  A
C92          C97   1.401       .  A
C92         C326   1.492       .  S
C93          C94   1.416       .  A
C93          H98   1.071       .  S
C94          C95   1.409       .  A
C94         C358   1.516       .  S
C95          C96   1.401       .  A
C95          H99   1.082       .  S
C96          C97   1.400       .  A
C96         C342   1.488       .  S
C97         H100   1.083       .  S
C101        C102   1.408       .  A
C101        C106   1.403       .  A
C101        C425   1.485       .  S
C102        C103   1.406       .  A
C102        H107   1.080       .  S
C103        C104   1.406       .  A
C103        C310   1.488       .  S
C104        C105   1.395       .  A
C104        H108   1.085       .  S
C105        C106   1.397       .  A
C105        C297   1.476       .  S
C106        H109   1.083       .  S
C110        C111   1.410       .  A
C110        C115   1.414       .  A
C110        C278   1.497       .  S
C111        C112   1.405       .  A
C111        H116   1.075       .  S
C112        C113   1.400       .  A
C112        C262   1.491       .  S
C113        C114   1.401       .  A
C113        H117   1.084       .  S
C114        C115   1.403       .  A
C114        C246   1.502       .  S
C115        H118   1.077       .  S
C119        C120   1.385       .  D
C119        C230   1.508       .  S
C119       C1857   1.508   1_455  S
C120        C249   1.521       .  S
C120       C1694   1.514   1_455  S
C121        C122   1.386       .  D
C121        C361   1.519       .  S
C121       C1133   1.492       .  S
C122        C265   1.509       .  S
C122       C1034   1.525       .  S
C123        C124   1.408       .  A
C123        C128   1.413       .  A
C123        C198   1.490       .  S
C124        C125   1.402       .  A
C124        H129   1.081       .  S
C125        C126   1.400       .  A
C125        C233   1.485       .  S
C126        C127   1.400       .  A
C126        H130   1.085       .  S
C127        C128   1.408       .  A
C127        C182   1.494       .  S
C128        H131   1.081       .  S
C132        C133   1.404       .  A
C132        C137   1.408       .  A
C132        C406   1.507       .  S
C133        C134   1.412       .  A
C133        H138   1.079       .  S
C134        C135   1.411       .  A
C134        C217   1.505       .  S
C135        C136   1.410       .  A
C135        H139   1.081       .  S
C136        C137   1.406       .  A
C136        C169   1.502       .  S
C137        H140   1.079       .  S
C141        C142   1.377       .  D
C141        C166   1.513       .  S
C141        C345   1.503       .  S
C142        C185   1.504       .  S
C142        C313   1.496       .  S
O143      Cr1641   2.001   1_455  S
O143        C151   1.263       .  A
O144       Cr901   1.997       .  S
O144        C145   1.264       .  A
C145        C601   1.499       .  S
C145        O146   1.257       .  A
O146       Cr162   1.986       .  S
O147      Cr1642   1.992   1_455  S
O147        C148   1.263       .  A
C148        C534   1.488       .  S
C148        O149   1.265       .  A
O149       Cr903   2.008       .  S
O150       Cr163   1.994       .  S
O150        C151   1.264       .  A
C151        C457   1.482       .  S
O152      Cr1641   1.996   1_455  S
O152        C160   1.263       .  A
O153       Cr901   2.004       .  S
O153        C154   1.266       .  A
C154        C329   1.495       .  S
C154        O155   1.264       .  A
O155       Cr162   1.992       .  S
O156      Cr1642   1.994   1_455  S
O156        C157   1.260       .  A
C157        C281   1.497       .  S
C157        O158   1.265       .  A
O158       Cr903   1.998       .  S
O159       Cr163   1.994       .  S
O159        C160   1.264       .  A
C160        C201   1.490       .  S
Cr161      O1623   2.001       .  S
Cr161       O884   1.997   1_545  S
Cr161      O1632   1.996       .  S
Cr161       O893   2.004   1_545  S
Cr161      O2384   1.777   1_545  S
Cr162      O1627   1.992       .  S
Cr162      O1636   1.994       .  S
Cr162      O1644   1.772       .  S
Cr163       O889   2.008   1_545  S
Cr163       O898   1.998   1_545  S
Cr163       O904   1.778   1_545  S
O164      Cr2381   1.777   1_455  S
O164      Cr1642   1.772   1_455  S
O164       Cr903   1.778       .  S
C165        C166   1.407       .  A
C165        C170   1.403       .  A
C165        H172   1.080       .  S
C166        C167   1.424       .  A
C167        C168   1.404       .  A
C167        C174   1.517       .  S
C168        C169   1.406       .  A
C168        H173   1.082       .  S
C169        C170   1.420       .  A
C170        C171   1.513       .  S
C171        F175   1.385       .  S
C171        F176   1.381       .  S
C171        F177   1.379       .  S
C174        F178   1.385       .  S
C174        F179   1.381       .  S
C174        F180   1.382       .  S
C181        C182   1.405       .  A
C181        C186   1.399       .  A
C181        H188   1.085       .  S
C182        C183   1.419       .  A
C183        C184   1.413       .  A
C183        C190   1.514       .  S
C184        C185   1.408       .  A
C184        H189   1.081       .  S
C185        C186   1.417       .  A
C186        C187   1.518       .  S
C187        F191   1.385       .  S
C187        F192   1.381       .  S
C187        F193   1.382       .  S
C190        F194   1.383       .  S
C190        F195   1.380       .  S
C190        F196   1.385       .  S
C197        C198   1.407       .  A
C197        C202   1.413       .  A
C197        H204   1.083       .  S
C198        C199   1.417       .  A
C199        C200   1.404       .  A
C199        C206   1.518       .  S
C200        C201   1.405       .  A
C200        H205   1.083       .  S
C201        C202   1.419       .  A
C202       C1683   1.516       .  S
C203       C1682   1.516       .  S
C203        F207   1.385       .  S
C203        F208   1.381       .  S
C203        F209   1.383       .  S
C206        F210   1.378       .  S
C206        F211   1.383       .  S
C206        F212   1.383       .  S
C213        C214   1.407       .  A
C213        C218   1.405       .  A
C213        H220   1.081       .  S
C214        C215   1.424       .  A
C214       C1600   1.514       .  S
C215        C216   1.400       .  A
C215       C1702   1.519       .  S
C216        C217   1.405       .  A
C216        H221   1.079       .  S
C217        C218   1.422       .  A
C218        C219   1.511       .  S
C219        F223   1.385       .  S
C219        F224   1.382       .  S
C219        F225   1.378       .  S
C222       C1695   1.519       .  S
C222        F226   1.383       .  S
C222        F227   1.374       .  S
C222        F228   1.385       .  S
C229        C230   1.413       .  A
C229        C234   1.414       .  A
C229        H236   1.082       .  S
C230        C231   1.426       .  A
C231        C232   1.394       .  A
C231        C238   1.520       .  S
C232        C233   1.397       .  A
C232        H237   1.086       .  S
C233        C234   1.414       .  A
C234        C235   1.516       .  S
C235        F240   1.382       .  S
C235        F241   1.383       .  S
C235       F1719   1.384       .  S
C238        F242   1.383       .  S
C238        F243   1.370       .  S
C238        F244   1.385       .  S
F239       C1715   1.384       .  S
C245        C246   1.409       .  A
C245        C250   1.406       .  A
C245        H252   1.085       .  S
C246        C247   1.421       .  A
C247        C248   1.405       .  A
C247        C254   1.524       .  S
C248        C249   1.413       .  A
C248        H253   1.082   1_455  S
C249        C250   1.428       .  A
C250        C251   1.520       .  S
C251        F255   1.385       .  S
C251        F256   1.383       .  S
C251        F257   1.373       .  S
C254        F258   1.381       .  S
C254        F259   1.383       .  S
C254        F260   1.386   1_455  S
C261        C262   1.398       .  A
C261        C266   1.394       .  A
C261        H268   1.086       .  S
C262        C263   1.418       .  A
C263        C264   1.415       .  A
C263        C270   1.517       .  S
C264        C265   1.413       .  A
C264       H1009   1.082       .  S
C265        C266   1.426       .  A
C266        C267   1.517       .  S
C267        F271   1.383       .  S
C267        F272   1.367       .  S
C267        F273   1.384       .  S
H269       C1004   1.082       .  S
C270        F274   1.382       .  S
C270        F275   1.383       .  S
C270       F1016   1.384       .  S
F276       C1010   1.384       .  S
C277        C278   1.402       .  A
C277        C282   1.405       .  A
C277        H284   1.082       .  S
C278        C279   1.423       .  A
C279        C280   1.412       .  A
C279        C286   1.521       .  S
C280        C281   1.407       .  A
C280        H285   1.083       .  S
C281        C282   1.427       .  A
C282        C283   1.522       .  S
C283        F287   1.385       .  S
C283        F288   1.377       .  S
C283        F289   1.383       .  S
C286        F290   1.381       .  S
C286        F291   1.384       .  S
C286        F292   1.385       .  S
C293        C294   1.415       .  A
C293        C298   1.397       .  A
C293       H1040   1.080       .  S
C294        C295   1.435       .  A
C294        C862   1.525   1_545  S
C295        C296   1.411       .  A
C295        C302   1.513       .  S
C296        C297   1.397       .  A
C296        H301   1.085       .  S
C297        C298   1.406       .  A
C298        C299   1.519       .  S
C299        F304   1.376       .  S
C299       F1043   1.385       .  S
C299       F1045   1.384       .  S
H300       C1033   1.080       .  S
C302        F306   1.382       .  S
C302        F307   1.371   1_545  S
C302        F308   1.385   1_545  S
F303       C1039   1.385       .  S
F305       C1039   1.384       .  S
C309        C310   1.400       .  A
C309        C314   1.391       .  A
C309        H316   1.079       .  S
C310        C311   1.420       .  A
C311        C312   1.414       .  A
C311        C318   1.517       .  S
C312        C313   1.409       .  A
C312        H317   1.082       .  S
C313        C314   1.415       .  A
C314        C315   1.519       .  S
C315        F319   1.385       .  S
C315        F320   1.379       .  S
C315        F321   1.382       .  S
C318        F322   1.383       .  S
C318        F323   1.381       .  S
C318        F324   1.384       .  S
C325        C326   1.408       .  A
C325        C330   1.411       .  A
C325        H332   1.083       .  S
C326        C327   1.414       .  A
C327        C328   1.410       .  A
C327        C334   1.519       .  S
C328        C329   1.411       .  A
C328        H333   1.083       .  S
C329        C330   1.420       .  A
C330        C331   1.520       .  S
C331        F335   1.385       .  S
C331        F336   1.381       .  S
C331        F337   1.383       .  S
C334        F338   1.380       .  S
C334        F339   1.383       .  S
C334        F340   1.385       .  S
C341        C342   1.403       .  A
C341        C346   1.403       .  A
C341        H348   1.083       .  S
C342        C343   1.420       .  A
C343        C344   1.399       .  A
C343        C350   1.518       .  S
C344        C345   1.406       .  A
C344        H349   1.082       .  S
C345        C346   1.423       .  A
C346        C347   1.517       .  S
C347        F351   1.384       .  S
C347        F352   1.380       .  S
C347        F353   1.382       .  S
C350        F354   1.382       .  S
C350        F355   1.383       .  S
C350        F356   1.384       .  S
C357        C358   1.416       .  A
C357        C362   1.408       .  A
C357        H364   1.082       .  S
C358        C359   1.424       .  A
C359        C360   1.409       .  A
C359        C366   1.522       .  S
C360        C361   1.412       .  A
C360       H1105   1.079       .  S
C361        C362   1.419       .  A
C362        C363   1.516       .  S
C363        F367   1.385       .  S
C363        F368   1.382       .  S
C363        F369   1.376       .  S
H365       C1100   1.079   1_545  S
C366        F370   1.382       .  S
C366        F371   1.383       .  S
C366       F1112   1.386       .  S
F372       C1106   1.386   1_545  S
C373        C374   1.401       .  A
C373        C378   1.410       .  A
C373        H380   1.085       .  S
C374        C375   1.414       .  A
C375        C376   1.396       .  A
C375        C382   1.523       .  S
C376        C377   1.408       .  A
C376        H381   1.082       .  S
C377        C378   1.431       .  A
C377       C1599   1.508       .  S
C378       C1859   1.519       .  S
C379       C1858   1.519   1_455  S
C379        F383   1.383   1_455  S
C379        F384   1.375       .  S
C379        F385   1.384       .  S
C382        F386   1.380       .  S
C382        F387   1.383       .  S
C382        F388   1.385       .  S
C389        C390   1.418       .  A
C389        C394   1.406       .  A
C389        H396   1.076       .  S
C390        C391   1.425       .  A
C391        C392   1.400       .  A
C391       C1138   1.522       .  S
C392        C393   1.403       .  A
C392       H1137   1.085   1_545  S
C393        C394   1.415       .  A
C393        C861   1.492   1_545  S
C394        C395   1.522       .  S
C395        F399   1.383       .  S
C395        F400   1.379       .  S
C395        F401   1.384       .  S
H397       C1132   1.085       .  S
C398       C1131   1.522       .  S
C398        F403   1.384       .  S
C398        F404   1.384       .  S
C398       F1142   1.383       .  S
F402       C1138   1.383       .  S
C405        C406   1.406       .  A
C405        C410   1.404       .  A
C405        H412   1.081       .  S
C406        C407   1.429       .  A
C407        C408   1.410       .  A
C407        C414   1.520       .  S
C408        C409   1.404       .  A
C408       H1893   1.083       .  S
C409        C410   1.426       .  A
C410        C411   1.525       .  S
C411        F415   1.385       .  S
C411        F416   1.384       .  S
C411        F417   1.381       .  S
H413       C1888   1.083   1_455  S
C414        F419   1.382       .  S
C414       F1898   1.383       .  S
C414       F1900   1.385       .  S
F418       C1894   1.383       .  S
F420       C1894   1.385   1_455  S
C421        C422   1.405       .  A
C421        C426   1.403       .  A
C421        H428   1.076       .  S
C422        C423   1.423       .  A
C423        C424   1.411       .  A
C423        C430   1.517       .  S
C424        C425   1.404       .  A
C424        H429   1.083       .  S
C425        C426   1.416       .  A
C426        C427   1.523       .  S
C427        F431   1.383       .  S
C427        F432   1.384       .  S
C427        F433   1.380       .  S
C430        F434   1.383       .  S
C430        F435   1.380       .  S
C430        F436   1.385       .  S
C437        C438   1.406       .  A
C437        C442   1.403       .  A
C437        H444   1.082       .  S
C438        C439   1.428       .  A
C439        C440   1.412       .  A
C439        C446   1.521   1_545  S
C440        C441   1.403       .  A
C440        H445   1.085       .  S
C441        C442   1.417       .  A
C442        C443   1.523       .  S
C443        F447   1.385       .  S
C443        F448   1.384       .  S
C443        F449   1.381       .  S
C446        F452   1.384   1_565  S
C446       F1190   1.383       .  S
C446       F1931   1.377       .  S
F450       C1186   1.383       .  S
F451       C1926   1.377       .  S
C453        C454   1.409       .  A
C453        C458   1.408       .  A
C453        H460   1.083       .  S
C454        C455   1.425       .  A
C455        C456   1.410       .  A
C455        C462   1.519       .  S
C456        C457   1.401       .  A
C456        H461   1.085       .  S
C457        C458   1.415       .  A
C458       C1939   1.517       .  S
C459       C1938   1.517       .  S
C459        F463   1.385       .  S
C459        F464   1.382       .  S
C459        F465   1.382       .  S
C462        F466   1.382       .  S
C462        F467   1.383       .  S
C462        F468   1.383       .  S
C469        C470   1.410       .  A
C469        C474   1.408       .  A
C469        H476   1.084       .  S
C470        C471   1.417       .  A
C471        C472   1.396       .  A
C471        C478   1.526       .  S
C472        C473   1.413       .  A
C472        H477   1.074       .  S
C473        C474   1.427       .  A
C474        C475   1.519       .  S
C475        F479   1.384   1_554  S
C475        F480   1.374   1_554  S
C475        F481   1.382       .  S
C478        F482   1.383       .  S
C478        F483   1.381       .  S
C478        F484   1.386       .  S
C485        C486   1.401       .  A
C485        C490   1.412       .  A
C485        H492   1.085       .  S
C486        C487   1.413       .  A
C487        C488   1.396       .  A
C487        C494   1.525       .  S
C488        C489   1.412       .  A
C488        H493   1.082   1_554  S
C489        C490   1.433       .  A
C490        C491   1.518       .  S
C491        F495   1.384   1_455  S
C491        F496   1.374   1_455  S
C491        F497   1.383       .  S
C494        F498   1.384       .  S
C494        F499   1.381   1_554  S
C494        F500   1.386   1_554  S
C501        C502   1.406       .  A
C501        C506   1.398       .  A
C501        H508   1.081       .  S
C502        C503   1.425       .  A
C503        C504   1.407       .  A
C503       C1250   1.517       .  S
C504        C505   1.405       .  A
C504        H509   1.083       .  S
C505        C506   1.416       .  A
C506        C507   1.512       .  S
C507        F511   1.379       .  S
C507        F512   1.381       .  S
C507        F513   1.382       .  S
C510       C1243   1.517   1_545  S
C510        F514   1.382       .  S
C510        F515   1.382       .  S
C510        F516   1.385       .  S
C517        C518   1.401       .  A
C517        C522   1.405       .  A
C517        H524   1.082       .  S
C518        C519   1.427       .  A
C519        C520   1.402       .  A
C519       C2006   1.521   1_455  S
C520        C521   1.405       .  A
C520        H525   1.083       .  S
C521        C522   1.427       .  A
C522        C523   1.510       .  S
C523        F527   1.386       .  S
C523        F528   1.378       .  S
C523        F529   1.381       .  S
C526       C1999   1.521       .  S
C526        F530   1.376       .  S
C526        F531   1.382       .  S
C526        F532   1.385       .  S
C533        C534   1.406       .  A
C533        C538   1.406       .  A
C533        H540   1.080       .  S
C534        C535   1.418       .  A
C535        C536   1.412       .  A
C535        C542   1.518       .  S
C536        C537   1.405       .  A
C536        H541   1.083       .  S
C537        C538   1.412       .  A
C538        C539   1.518       .  S
C539        F543   1.385       .  S
C539        F544   1.382       .  S
C539        F545   1.384       .  S
C542        F547   1.382   1_455  S
C542        F548   1.385       .  S
C542       F1286   1.383       .  S
F546       C1282   1.383       .  S
C549        C550   1.405       .  A
C549        C554   1.415       .  A
C549        H556   1.083       .  S
C550        C551   1.414       .  A
C551        C552   1.402       .  A
C551        C558   1.511       .  S
C552        C553   1.399       .  A
C552        H557   1.083       .  S
C553        C554   1.419       .  A
C554        C555   1.517       .  S
C555        F559   1.384       .  S
C555        F560   1.382       .  S
C555        F561   1.383       .  S
C558        F562   1.382       .  S
C558        F563   1.383       .  S
C558        F564   1.384       .  S
C565        C566   1.407       .  A
C565        C570   1.401       .  A
C565        H572   1.081       .  S
C566        C567   1.431       .  A
C567        C568   1.409       .  A
C567        C574   1.524       .  S
C568        C569   1.406       .  A
C568        H573   1.085   1_556  S
C569        C570   1.425       .  A
C570        C571   1.518       .  S
C571        F575   1.383       .  S
C571        F576   1.370       .  S
C571        F577   1.384       .  S
C574        F578   1.382       .  S
C574        F579   1.383       .  S
C574        F580   1.385   1_556  S
C581        C582   1.408       .  A
C581        C586   1.400       .  A
C581        H588   1.081       .  S
C582        C583   1.419       .  A
C583        C584   1.402       .  A
C583        C590   1.516       .  S
C584        C585   1.409       .  A
C584        H589   1.082       .  S
C585        C586   1.421       .  A
C585        C787   1.506   1_545  S
C586       C1327   1.518   1_545  S
C587       C1326   1.518       .  S
C587        F591   1.382       .  S
C587        F593   1.385       .  S
C587       F1332   1.381       .  S
C590        F594   1.382       .  S
C590        F595   1.383       .  S
C590        F596   1.383       .  S
F592       C1327   1.381       .  S
C597        C598   1.402       .  A
C597        C602   1.405       .  A
C597        H604   1.082       .  S
C598        C599   1.421       .  A
C599        C600   1.408       .  A
C599        C606   1.520       .  S
C600        C601   1.407       .  A
C600        H605   1.081       .  S
C601        C602   1.430       .  A
C602        C603   1.525       .  S
C603        F607   1.385       .  S
C603        F608   1.383       .  S
C603        F609   1.384       .  S
C606        F610   1.383       .  S
C606        F611   1.382       .  S
C606       F1352   1.384       .  S
F612       C1346   1.384       .  S
C613        C614   1.406       .  A
C613        C618   1.413       .  A
C613        H620   1.084       .  S
C614        C615   1.416       .  A
C615        C616   1.393   1_554  A
C615        C622   1.515   1_554  S
C616        C617   1.402   1_556  A
C616        H621   1.083       .  S
C617        C618   1.422       .  A
C618        C619   1.516       .  S
C619        F623   1.384       .  S
C619        F624   1.380       .  S
C619        F625   1.383       .  S
C622        F626   1.383   1_556  S
C622        F627   1.378       .  S
C622        F628   1.385       .  S
C629        C630   1.398       .  A
C629        C634   1.391       .  A
C629        H636   1.079       .  S
C630        C631   1.417       .  A
C631        C632   1.416       .  A
C631        C638   1.517       .  S
C632        C633   1.413       .  A
C632        H637   1.082       .  S
C633        C634   1.417       .  A
C634        C635   1.520   1_554  S
C635        F639   1.382       .  S
C635        F640   1.382       .  S
C635        F641   1.380       .  S
C638        F642   1.381       .  S
C638        F643   1.383       .  S
C638        F644   1.385       .  S
C645        C646   1.399       .  A
C645        C650   1.405       .  A
C645        H652   1.083       .  S
C646        C647   1.420       .  A
C647        C648   1.410       .  A
C647        C654   1.520       .  S
C648        C649   1.404       .  A
C648        H653   1.083       .  S
C649        C650   1.424       .  A
C650        C651   1.520       .  S
C651        F655   1.385       .  S
C651        F656   1.382       .  S
C651        F657   1.377       .  S
C654        F658   1.383       .  S
C654        F659   1.381       .  S
C654        F660   1.385       .  S
C661        C662   1.400       .  A
C661        C666   1.405       .  A
C661        H668   1.085       .  S
C662        C663   1.417       .  A
C663        C664   1.403       .  A
C663        C670   1.523   1_556  S
C664        C665   1.409       .  A
C664        H669   1.083   1_556  S
C665        C666   1.427       .  A
C666        C667   1.514       .  S
C667        F671   1.385       .  S
C667        F672   1.373       .  S
C667        F673   1.381       .  S
C670        F674   1.384   1_554  S
C670        F675   1.382       .  S
C670        F676   1.385       .  S
C677        C678   1.411       .  A
C677        C682   1.403       .  A
C677        H684   1.084       .  S
C678        C679   1.426       .  A
C679        C680   1.405       .  A
C679       C2166   1.523       .  S
C680        C681   1.409       .  A
C680       H2165   1.082       .  S
C681        C682   1.423       .  A
C681       C1538   1.509   1_556  S
C682        C683   1.519       .  S
C683        F687   1.385       .  S
C683        F688   1.375   1_556  S
C683        F689   1.383       .  S
H685       C2160   1.082   1_455  S
C686       C2159   1.523   1_455  S
C686        F690   1.382   1_455  S
C686        F692   1.385       .  S
C686       F2171   1.382       .  S
F691       C2166   1.382       .  S
C693        C694   1.398       .  A
C693        C698   1.394       .  A
C693        H700   1.086       .  S
C694        C695   1.409       .  A
C695        C696   1.409       .  A
C695        C702   1.515       .  S
C696        C697   1.415       .  A
C696        H701   1.081       .  S
C697        C698   1.425       .  A
C697       C1537   1.508   1_556  S
C698        C699   1.521   1_556  S
C699        F703   1.384       .  S
C699        F704   1.372       .  S
C699        F705   1.383       .  S
C702        F706   1.383       .  S
C702        F707   1.382       .  S
C702        F708   1.384       .  S
C709        C710   1.402       .  A
C709        C714   1.396       .  A
C709        H716   1.085       .  S
C710        C711   1.413       .  A
C711        C712   1.409       .  A
C711        C718   1.517       .  S
C712        C713   1.412       .  A
C712        H717   1.081       .  S
C713        C714   1.417       .  A
C713        C786   1.500   1_545  S
C714        C715   1.519   1_556  S
C715        F719   1.382       .  S
C715        F720   1.382       .  S
C715        F721   1.385       .  S
C718        F722   1.381       .  S
C718        F723   1.383       .  S
C718        F724   1.384       .  S
C725        C726   1.400       .  A
C725        C730   1.403       .  A
C725        H732   1.083       .  S
C726        C727   1.419       .  A
C727        C728   1.409       .  A
C727        C734   1.519       .  S
C728        C729   1.408       .  A
C728       H2213   1.084       .  S
C729        C730   1.427       .  A
C730        C731   1.524       .  S
C731        F735   1.385       .  S
C731        F737   1.381       .  S
C731       F1476   1.383   1_545  S
H733       C2208   1.084   1_455  S
C734        F738   1.383       .  S
C734        F739   1.382       .  S
C734       F2220   1.385       .  S
F736       C1471   1.383       .  S
F740       C2214   1.385   1_455  S
C741        C742   1.408       .  A
C741        C746   1.409       .  A
C741       C1466   1.485       .  S
C742        C743   1.403       .  A
C742        H747   1.081       .  S
C743        C744   1.397       .  A
C743       C1434   1.475       .  S
C744        C745   1.395       .  A
C744        H748   1.086       .  S
C745        C746   1.401       .  A
C745       C1450   1.479       .  S
C746        H749   1.082       .  S
C750        C751   1.407       .  A
C750        C755   1.402       .  A
C750       C1386   1.485       .  S
C751        C752   1.408       .  A
C751        H756   1.074       .  S
C752        C753   1.409       .  A
C752       C1418   1.506       .  S
C753        C754   1.394       .  A
C753        H757   1.078       .  S
C754        C755   1.402       .  A
C754       C1402   1.484       .  S
C755        H758   1.083       .  S
C759        C760   1.409       .  A
C759        C764   1.410       .  A
C759       C1338   1.494       .  S
C760        C761   1.403       .  A
C760        H765   1.079       .  S
C761        C762   1.406       .  A
C761       C1370   1.486       .  S
C762        C763   1.399       .  A
C762        H766   1.084       .  S
C763        C764   1.400       .  A
C763       C1354   1.484       .  S
C764        H767   1.084       .  S
C768        C769   1.403       .  A
C768        C773   1.399       .  A
C768       C1293   1.485       .  S
C769        C770   1.417       .  A
C769        H774   1.080       .  S
C770        C771   1.405       .  A
C770       C1306   1.511       .  S
C771        C772   1.406       .  A
C771        H775   1.071       .  S
C772        C773   1.404       .  A
C772       C1322   1.499       .  S
C773        H776   1.083       .  S
C777        C778   1.400       .  A
C777        C782   1.399       .  A
C777       C1277   1.484       .  S
C778        C779   1.413       .  A
C778        H783   1.083       .  S
C779        C780   1.411       .  A
C779       C1261   1.508       .  S
C780        C781   1.413       .  A
C780        H784   1.079       .  S
C781        C782   1.405       .  A
C781       C1245   1.495       .  S
C782        H785   1.083       .  S
C786        C787   1.378       .  D
C786       C1373   1.500   1_556  S
C787       C1242   1.509   1_556  S
C788        C789   1.412       .  A
C788        C793   1.409       .  A
C788       C1194   1.499       .  S
C789        C790   1.404       .  A
C789        H794   1.083       .  S
C790        C791   1.393       .  A
C790       C1226   1.480       .  S
C791        C792   1.400       .  A
C791        H795   1.083       .  S
C792        C793   1.407       .  A
C792       C1210   1.494       .  S
C793        H796   1.075       .  S
C797        C798   1.386       .  D
C797       C1229   1.517   1_655  S
C797       C2917   1.508   1_554  S
C798       C1258   1.511   1_655  S
C798       C2901   1.509   1_554  S
C799        C800   1.378       .  D
C799       C1357   1.497   1_556  S
C799       C1405   1.507       .  S
C800       C1213   1.519   1_556  S
C800       C1309   1.506       .  S
O801       Cr819   1.999       .  S
O801       C2289   1.266   1_455  A
O802       Cr819   2.007   1_545  S
C803       C1162   1.495       .  S
C803        O804   1.258       .  A
O804       Cr820   1.984       .  S
O805       Cr820   1.999   1_655  S
O805       C2286   1.267       .  A
C806       C1178   1.490       .  S
C806       O2285   1.267       .  A
O807       Cr821   1.990       .  S
O808       Cr821   1.987       .  S
O808        C809   1.258       .  A
C809       C1149   1.496       .  S
C809       O2281   1.266       .  A
O810       Cr819   2.006   1_655  S
O810       C2298   1.264       .  A
O811       Cr819   1.996       .  S
C812       C1290   1.483       .  S
C812        O813   1.265       .  A
O813       Cr820   2.005       .  S
O814       Cr820   1.992       .  S
O814       C2295   1.262   1_455  A
C815       C1469   1.492       .  S
C815       O2294   1.262       .  A
O816       Cr821   1.988   1_545  S
O817       Cr821   1.991       .  S
O817        C818   1.265       .  A
C818       C1389   1.486       .  S
C818       O2290   1.264       .  A
Cr819       O822   1.774       .  S
Cr821      O2302   1.773       .  S
O822      Cr2301   1.773   1_455  S
C823        C824   1.401       .  A
C823        C828   1.398       .  A
C823       C1181   1.486       .  S
C824        C825   1.415       .  A
C824        H829   1.074       .  S
C825        C826   1.413       .  A
C825       C1130   1.515       .  S
C826        C827   1.400       .  A
C826        H830   1.079       .  S
C827        C828   1.399       .  A
C827       C1114   1.477       .  S
C828        H831   1.084       .  S
C832        C833   1.412       .  A
C832        C837   1.401       .  A
C832       C1066   1.492       .  S
C833        C834   1.416       .  A
C833        H838   1.071       .  S
C834        C835   1.409       .  A
C834       C1098   1.516       .  S
C835        C836   1.401       .  A
C835        H839   1.082       .  S
C836        C837   1.400       .  A
C836       C1082   1.488       .  S
C837        H840   1.083       .  S
C841        C842   1.408       .  A
C841        C846   1.404       .  A
C841       C1165   1.485       .  S
C842        C843   1.406       .  A
C842        H847   1.080       .  S
C843        C844   1.406       .  A
C843       C1050   1.488       .  S
C844        C845   1.395       .  A
C844        H848   1.085       .  S
C845        C846   1.397       .  A
C845       C1037   1.476       .  S
C846        H849   1.083       .  S
C850        C851   1.410       .  A
C850        C855   1.414       .  A
C850       C1018   1.497       .  S
C851        C852   1.405       .  A
C851        H856   1.075       .  S
C852        C853   1.400       .  A
C852       C1002   1.491       .  S
C853        C854   1.401       .  A
C853        H857   1.084       .  S
C854        C855   1.403       .  A
C854        C986   1.502       .  S
C855        H858   1.077       .  S
C859        C860   1.385       .  D
C859        C970   1.508       .  S
C859       C2597   1.508   1_455  S
C860       C2434   1.514   1_455  S
C860        C989   1.521       .  S
C861        C862   1.386       .  D
C861       C1101   1.519       .  S
C862       C1005   1.509       .  S
C863        C864   1.408       .  A
C863        C868   1.413       .  A
C863        C938   1.490       .  S
C864        C865   1.402       .  A
C864        H869   1.081       .  S
C865        C866   1.400       .  A
C865        C973   1.485       .  S
C866        C867   1.400       .  A
C866        H870   1.085       .  S
C867        C868   1.408       .  A
C867        C922   1.494       .  S
C868        H871   1.081       .  S
C872        C873   1.404       .  A
C872        C877   1.408       .  A
C872       C1146   1.507       .  S
C873        C874   1.412       .  A
C873        H878   1.079       .  S
C874        C875   1.411       .  A
C874        C957   1.505       .  S
C875        C876   1.410       .  A
C875        H879   1.081       .  S
C876        C877   1.406       .  A
C876        C909   1.502       .  S
C877        H880   1.079       .  S
C881        C882   1.377       .  D
C881        C906   1.513       .  S
C881       C1085   1.503       .  S
C882        C925   1.504       .  S
C882       C1053   1.496       .  S
O883      Cr2381   2.001   1_455  S
O883        C891   1.263       .  A
O884        C885   1.264       .  A
C885       C1341   1.499       .  S
C885        O886   1.257       .  A
O886       Cr902   1.986       .  S
O887      Cr2382   1.992   1_455  S
O887        C888   1.263       .  A
C888       C1274   1.488       .  S
C888        O889   1.265       .  A
O890       Cr903   1.994       .  S
O890        C891   1.264       .  A
C891       C1197   1.482       .  S
O892      Cr2381   1.996   1_455  S
O892        C900   1.263       .  A
O893        C894   1.266       .  A
C894       C1069   1.495       .  S
C894        O895   1.264       .  A
O895       Cr902   1.992       .  S
O896      Cr2382   1.994   1_455  S
O896        C897   1.260       .  A
C897       C1021   1.497       .  S
C897        O898   1.265       .  A
O899       Cr903   1.994       .  S
O899        C900   1.264       .  A
C900        C941   1.490       .  S
Cr901      O2363   2.001       .  S
Cr901      O2372   1.996       .  S
Cr901      O1644   1.777       .  S
Cr902      O2367   1.992       .  S
Cr902      O2376   1.994       .  S
Cr902      O2384   1.772       .  S
O904      Cr1641   1.777   1_465  S
O904      Cr2382   1.772   1_455  S
C905        C906   1.407       .  A
C905        C910   1.403       .  A
C905        H912   1.080       .  S
C906        C907   1.424       .  A
C907        C908   1.404       .  A
C907        C914   1.517       .  S
C908        C909   1.406       .  A
C908        H913   1.082       .  S
C909        C910   1.420       .  A
C910        C911   1.513       .  S
C911        F915   1.385       .  S
C911        F916   1.381       .  S
C911        F917   1.379       .  S
C914        F918   1.385       .  S
C914        F919   1.381       .  S
C914        F920   1.382       .  S
C921        C922   1.405       .  A
C921        C926   1.399       .  A
C921        H928   1.085       .  S
C922        C923   1.419       .  A
C923        C924   1.413       .  A
C923        C930   1.514       .  S
C924        C925   1.408       .  A
C924        H929   1.081       .  S
C925        C926   1.417       .  A
C926        C927   1.518       .  S
C927        F931   1.385       .  S
C927        F932   1.381       .  S
C927        F933   1.382       .  S
C930        F934   1.383       .  S
C930        F935   1.380       .  S
C930        F936   1.385       .  S
C937        C938   1.407       .  A
C937        C942   1.413       .  A
C937        H944   1.083       .  S
C938        C939   1.417       .  A
C939        C940   1.404       .  A
C939        C946   1.518       .  S
C940        C941   1.405       .  A
C940        H945   1.083       .  S
C941        C942   1.419       .  A
C942       C2423   1.516       .  S
C943       C2422   1.516       .  S
C943        F947   1.385       .  S
C943        F948   1.381       .  S
C943        F949   1.383       .  S
C946        F950   1.378       .  S
C946        F951   1.383       .  S
C946        F952   1.383       .  S
C953        C954   1.407       .  A
C953        C958   1.405       .  A
C953        H960   1.081       .  S
C954        C955   1.424       .  A
C954       C2340   1.514       .  S
C955        C956   1.400       .  A
C955       C2442   1.519       .  S
C956        C957   1.405       .  A
C956        H961   1.079       .  S
C957        C958   1.422       .  A
C958        C959   1.511       .  S
C959        F963   1.385       .  S
C959        F964   1.382       .  S
C959        F965   1.378       .  S
C962       C2435   1.519       .  S
C962        F966   1.383       .  S
C962        F967   1.374       .  S
C962        F968   1.385       .  S
C969        C970   1.413       .  A
C969        C974   1.414       .  A
C969        H976   1.082       .  S
C970        C971   1.426       .  A
C971        C972   1.394       .  A
C971        C978   1.520       .  S
C972        C973   1.397       .  A
C972        H977   1.086       .  S
C973        C974   1.414       .  A
C974        C975   1.516       .  S
C975       F2459   1.384       .  S
C975        F980   1.382       .  S
C975        F981   1.383       .  S
C978        F982   1.383       .  S
C978        F983   1.370       .  S
C978        F984   1.385       .  S
F979       C2455   1.384       .  S
C985        C986   1.409       .  A
C985        C990   1.406       .  A
C985        H992   1.085       .  S
C986        C987   1.422       .  A
C987        C988   1.405       .  A
C987        C994   1.524       .  S
C988        C989   1.413       .  A
C988        H993   1.082   1_455  S
C989        C990   1.428       .  A
C990        C991   1.520       .  S
C991        F995   1.385       .  S
C991        F996   1.383       .  S
C991        F997   1.373       .  S
C994        F998   1.381       .  S
C994        F999   1.383       .  S
C994       F1000   1.386   1_455  S
C1001      C1002   1.399       .  A
C1001      C1006   1.394       .  A
C1001      H1008   1.086       .  S
C1002      C1003   1.418       .  A
C1003      C1004   1.415       .  A
C1003      C1010   1.517       .  S
C1004      C1005   1.413       .  A
C1005      C1006   1.426       .  A
C1006      C1007   1.517       .  S
C1007      F1011   1.383       .  S
C1007      F1012   1.367       .  S
C1007      F1013   1.384       .  S
C1010      F1014   1.382       .  S
C1010      F1015   1.383       .  S
C1017      C1018   1.402       .  A
C1017      C1022   1.405       .  A
C1017      H1024   1.082       .  S
C1018      C1019   1.423       .  A
C1019      C1020   1.412       .  A
C1019      C1026   1.521       .  S
C1020      C1021   1.407       .  A
C1020      H1025   1.083       .  S
C1021      C1022   1.427       .  A
C1022      C1023   1.522       .  S
C1023      F1027   1.385       .  S
C1023      F1028   1.377       .  S
C1023      F1029   1.383       .  S
C1026      F1030   1.381       .  S
C1026      F1031   1.384       .  S
C1026      F1032   1.385       .  S
C1033      C1034   1.415       .  A
C1033      C1038   1.397       .  A
C1034      C1035   1.435       .  A
C1035      C1036   1.411       .  A
C1035      C1042   1.513       .  S
C1036      C1037   1.397       .  A
C1036      H1041   1.085       .  S
C1037      C1038   1.406       .  A
C1038      C1039   1.519       .  S
C1039      F1044   1.376       .  S
C1042      F1046   1.382       .  S
C1042      F1047   1.371       .  S
C1042      F1048   1.385       .  S
C1049      C1050   1.400       .  A
C1049      C1054   1.391       .  A
C1049      H1056   1.079       .  S
C1050      C1051   1.420       .  A
C1051      C1052   1.414       .  A
C1051      C1058   1.517       .  S
C1052      C1053   1.409       .  A
C1052      H1057   1.082       .  S
C1053      C1054   1.415       .  A
C1054      C1055   1.519       .  S
C1055      F1059   1.385       .  S
C1055      F1060   1.379       .  S
C1055      F1061   1.382       .  S
C1058      F1062   1.383       .  S
C1058      F1063   1.381       .  S
C1058      F1064   1.384       .  S
C1065      C1066   1.408       .  A
C1065      C1070   1.411       .  A
C1065      H1072   1.083       .  S
C1066      C1067   1.414       .  A
C1067      C1068   1.410       .  A
C1067      C1074   1.519       .  S
C1068      C1069   1.411       .  A
C1068      H1073   1.083       .  S
C1069      C1070   1.420       .  A
C1070      C1071   1.520       .  S
C1071      F1075   1.385       .  S
C1071      F1076   1.381       .  S
C1071      F1077   1.383       .  S
C1074      F1078   1.380       .  S
C1074      F1079   1.383       .  S
C1074      F1080   1.385       .  S
C1081      C1082   1.403       .  A
C1081      C1086   1.403       .  A
C1081      H1088   1.083       .  S
C1082      C1083   1.420       .  A
C1083      C1084   1.399       .  A
C1083      C1090   1.518       .  S
C1084      C1085   1.406       .  A
C1084      H1089   1.082       .  S
C1085      C1086   1.423       .  A
C1086      C1087   1.517       .  S
C1087      F1091   1.384       .  S
C1087      F1092   1.380       .  S
C1087      F1093   1.382       .  S
C1090      F1094   1.382       .  S
C1090      F1095   1.383       .  S
C1090      F1096   1.384       .  S
C1097      C1098   1.416       .  A
C1097      C1102   1.408       .  A
C1097      H1104   1.082       .  S
C1098      C1099   1.424       .  A
C1099      C1100   1.409       .  A
C1099      C1106   1.522       .  S
C1100      C1101   1.412       .  A
C1101      C1102   1.419       .  A
C1102      C1103   1.516       .  S
C1103      F1107   1.385       .  S
C1103      F1108   1.382       .  S
C1103      F1109   1.376       .  S
C1106      F1110   1.382   1_565  S
C1106      F1111   1.383       .  S
C1113      C1114   1.401       .  A
C1113      C1118   1.410       .  A
C1113      H1120   1.085       .  S
C1114      C1115   1.414       .  A
C1115      C1116   1.396       .  A
C1115      C1122   1.523       .  S
C1116      C1117   1.408       .  A
C1116      H1121   1.082       .  S
C1117      C1118   1.431       .  A
C1117      C2339   1.508       .  S
C1118      C2599   1.519       .  S
C1119      C2598   1.519   1_455  S
C1119      F1123   1.383   1_455  S
C1119      F1124   1.375       .  S
C1119      F1125   1.384       .  S
C1122      F1126   1.380       .  S
C1122      F1127   1.383       .  S
C1122      F1128   1.385       .  S
C1129      C1130   1.418       .  A
C1129      C1134   1.406       .  A
C1129      H1136   1.076       .  S
C1130      C1131   1.425       .  A
C1131      C1132   1.400       .  A
C1132      C1133   1.403       .  A
C1133      C1134   1.415       .  A
C1134      C1135   1.522       .  S
C1135      F1139   1.383       .  S
C1135      F1140   1.379       .  S
C1135      F1141   1.384       .  S
C1138      F1143   1.384   1_545  S
C1138      F1144   1.384   1_545  S
C1145      C1146   1.406       .  A
C1145      C1150   1.404       .  A
C1145      H1152   1.081       .  S
C1146      C1147   1.429       .  A
C1147      C1148   1.410       .  A
C1147      C1154   1.520       .  S
C1148      C1149   1.404       .  A
C1148      H2633   1.083       .  S
C1149      C1150   1.426       .  A
C1150      C1151   1.525       .  S
C1151      F1155   1.385       .  S
C1151      F1156   1.384       .  S
C1151      F1157   1.381       .  S
H1153      C2628   1.083   1_455  S
C1154      F2638   1.383       .  S
C1154      F1159   1.382       .  S
C1154      F2640   1.385       .  S
F1158      C2634   1.383       .  S
F1160      C2634   1.385   1_455  S
C1161      C1162   1.405       .  A
C1161      C1166   1.403       .  A
C1161      H1168   1.076       .  S
C1162      C1163   1.423       .  A
C1163      C1164   1.411       .  A
C1163      C1170   1.517       .  S
C1164      C1165   1.404       .  A
C1164      H1169   1.083       .  S
C1165      C1166   1.416       .  A
C1166      C1167   1.523       .  S
C1167      F1171   1.383       .  S
C1167      F1172   1.384       .  S
C1167      F1173   1.380       .  S
C1170      F1174   1.383       .  S
C1170      F1175   1.380       .  S
C1170      F1176   1.385       .  S
C1177      C1178   1.406       .  A
C1177      C1182   1.403       .  A
C1177      H1184   1.082       .  S
C1178      C1179   1.428       .  A
C1179      C1180   1.412       .  A
C1179      C1186   1.521       .  S
C1180      C1181   1.403       .  A
C1180      H1185   1.085       .  S
C1181      C1182   1.417       .  A
C1182      C1183   1.523       .  S
C1183      F1187   1.385       .  S
C1183      F1188   1.384       .  S
C1183      F1189   1.381       .  S
C1186      F2671   1.377       .  S
C1186      F1192   1.384       .  S
F1191      C2666   1.377       .  S
C1193      C1194   1.409       .  A
C1193      C1198   1.408       .  A
C1193      H1200   1.083       .  S
C1194      C1195   1.425       .  A
C1195      C1196   1.410       .  A
C1195      C1202   1.519       .  S
C1196      C1197   1.401       .  A
C1196      H1201   1.085       .  S
C1197      C1198   1.415       .  A
C1198      C2679   1.517       .  S
C1199      C2678   1.517       .  S
C1199      F1203   1.385       .  S
C1199      F1204   1.382       .  S
C1199      F1205   1.382       .  S
C1202      F1206   1.382       .  S
C1202      F1207   1.383       .  S
C1202      F1208   1.383       .  S
C1209      C1210   1.410       .  A
C1209      C1214   1.408       .  A
C1209      H1216   1.084       .  S
C1210      C1211   1.417       .  A
C1211      C1212   1.396       .  A
C1211      C1218   1.526       .  S
C1212      C1213   1.413       .  A
C1212      H1217   1.074       .  S
C1213      C1214   1.427       .  A
C1214      C1215   1.519       .  S
C1215      F1219   1.384   1_554  S
C1215      F1220   1.374   1_554  S
C1215      F1221   1.382       .  S
C1218      F1222   1.383       .  S
C1218      F1223   1.381       .  S
C1218      F1224   1.386       .  S
C1225      C1226   1.401       .  A
C1225      C1230   1.412       .  A
C1225      H1232   1.085       .  S
C1226      C1227   1.413       .  A
C1227      C1228   1.396       .  A
C1227      C1234   1.525       .  S
C1228      C1229   1.412       .  A
C1228      H1233   1.082   1_554  S
C1229      C1230   1.433       .  A
C1230      C1231   1.518       .  S
C1231      F1235   1.384   1_455  S
C1231      F1236   1.374   1_455  S
C1231      F1237   1.383       .  S
C1234      F1238   1.384       .  S
C1234      F1239   1.381   1_554  S
C1234      F1240   1.386   1_554  S
C1241      C1242   1.406       .  A
C1241      C1246   1.398       .  A
C1241      H1248   1.081       .  S
C1242      C1243   1.425       .  A
C1243      C1244   1.407       .  A
C1244      C1245   1.405       .  A
C1244      H1249   1.083       .  S
C1245      C1246   1.416       .  A
C1246      C1247   1.512       .  S
C1247      F1251   1.379       .  S
C1247      F1252   1.381       .  S
C1247      F1253   1.382       .  S
C1250      F1254   1.382       .  S
C1250      F1255   1.382       .  S
C1250      F1256   1.385       .  S
C1257      C1258   1.401       .  A
C1257      C1262   1.405       .  A
C1257      H1264   1.082       .  S
C1258      C1259   1.427       .  A
C1259      C1260   1.402       .  A
C1259      C2746   1.521   1_455  S
C1260      C1261   1.405       .  A
C1260      H1265   1.083       .  S
C1261      C1262   1.427       .  A
C1262      C1263   1.510       .  S
C1263      F1267   1.386       .  S
C1263      F1268   1.378       .  S
C1263      F1269   1.381       .  S
C1266      C2739   1.521       .  S
C1266      F1270   1.376       .  S
C1266      F1271   1.382       .  S
C1266      F1272   1.385       .  S
C1273      C1274   1.406       .  A
C1273      C1278   1.406       .  A
C1273      H1280   1.080       .  S
C1274      C1275   1.418       .  A
C1275      C1276   1.412       .  A
C1275      C1282   1.518       .  S
C1276      C1277   1.405       .  A
C1276      H1281   1.083       .  S
C1277      C1278   1.412       .  A
C1278      C1279   1.518       .  S
C1279      F1283   1.385       .  S
C1279      F1284   1.382       .  S
C1279      F1285   1.384       .  S
C1282      F1287   1.382   1_455  S
C1282      F1288   1.385       .  S
C1289      C1290   1.405       .  A
C1289      C1294   1.415       .  A
C1289      H1296   1.083       .  S
C1290      C1291   1.414       .  A
C1291      C1292   1.402       .  A
C1291      C1298   1.511       .  S
C1292      C1293   1.399       .  A
C1292      H1297   1.083       .  S
C1293      C1294   1.419       .  A
C1294      C1295   1.517       .  S
C1295      F1299   1.384       .  S
C1295      F1300   1.382       .  S
C1295      F1301   1.383       .  S
C1298      F1302   1.382       .  S
C1298      F1303   1.383       .  S
C1298      F1304   1.384       .  S
C1305      C1306   1.407       .  A
C1305      C1310   1.401       .  A
C1305      H1312   1.081       .  S
C1306      C1307   1.431       .  A
C1307      C1308   1.409       .  A
C1307      C1314   1.524       .  S
C1308      C1309   1.406       .  A
C1308      H1313   1.085   1_556  S
C1309      C1310   1.425       .  A
C1310      C1311   1.518       .  S
C1311      F1315   1.383       .  S
C1311      F1316   1.370       .  S
C1311      F1317   1.384       .  S
C1314      F1318   1.382       .  S
C1314      F1319   1.383       .  S
C1314      F1320   1.385   1_556  S
C1321      C1322   1.408       .  A
C1321      C1326   1.400       .  A
C1321      H1328   1.081       .  S
C1322      C1323   1.419       .  A
C1323      C1324   1.402       .  A
C1323      C1330   1.516       .  S
C1324      C1325   1.409       .  A
C1324      H1329   1.082       .  S
C1325      C1326   1.421       .  A
C1327      F1331   1.382       .  S
C1327      F1333   1.385       .  S
C1330      F1334   1.382       .  S
C1330      F1335   1.383       .  S
C1330      F1336   1.383       .  S
C1337      C1338   1.402       .  A
C1337      C1342   1.405       .  A
C1337      H1344   1.082       .  S
C1338      C1339   1.421       .  A
C1339      C1340   1.408       .  A
C1339      C1346   1.520       .  S
C1340      C1341   1.407       .  A
C1340      H1345   1.081       .  S
C1341      C1342   1.430       .  A
C1342      C1343   1.525       .  S
C1343      F1347   1.385       .  S
C1343      F1348   1.383       .  S
C1343      F1349   1.384       .  S
C1346      F1350   1.383   1_565  S
C1346      F1351   1.382       .  S
C1353      C1354   1.406       .  A
C1353      C1358   1.413       .  A
C1353      H1360   1.084       .  S
C1354      C1355   1.416       .  A
C1355      C1356   1.393   1_554  A
C1355      C1362   1.515   1_554  S
C1356      C1357   1.402   1_556  A
C1356      H1361   1.083       .  S
C1357      C1358   1.422       .  A
C1358      C1359   1.516       .  S
C1359      F1363   1.384       .  S
C1359      F1364   1.380       .  S
C1359      F1365   1.383       .  S
C1362      F1366   1.383   1_556  S
C1362      F1367   1.378       .  S
C1362      F1368   1.385       .  S
C1369      C1370   1.398       .  A
C1369      C1374   1.391       .  A
C1369      H1376   1.079       .  S
C1370      C1371   1.417       .  A
C1371      C1372   1.416       .  A
C1371      C1378   1.517       .  S
C1372      C1373   1.413       .  A
C1372      H1377   1.082       .  S
C1373      C1374   1.417       .  A
C1374      C1375   1.520   1_554  S
C1375      F1379   1.382       .  S
C1375      F1380   1.382       .  S
C1375      F1381   1.380       .  S
C1378      F1382   1.381       .  S
C1378      F1383   1.383       .  S
C1378      F1384   1.385       .  S
C1385      C1386   1.399       .  A
C1385      C1390   1.405       .  A
C1385      H1392   1.083       .  S
C1386      C1387   1.420       .  A
C1387      C1388   1.410       .  A
C1387      C1394   1.520       .  S
C1388      C1389   1.404       .  A
C1388      H1393   1.083       .  S
C1389      C1390   1.424       .  A
C1390      C1391   1.520       .  S
C1391      F1395   1.385       .  S
C1391      F1396   1.382       .  S
C1391      F1397   1.377       .  S
C1394      F1398   1.383       .  S
C1394      F1399   1.381       .  S
C1394      F1400   1.385       .  S
C1401      C1402   1.400       .  A
C1401      C1406   1.405       .  A
C1401      H1408   1.085       .  S
C1402      C1403   1.417       .  A
C1403      C1404   1.403       .  A
C1403      C1410   1.523   1_556  S
C1404      C1405   1.409       .  A
C1404      H1409   1.083   1_556  S
C1405      C1406   1.427       .  A
C1406      C1407   1.514       .  S
C1407      F1411   1.385       .  S
C1407      F1412   1.373       .  S
C1407      F1413   1.381       .  S
C1410      F1414   1.384   1_554  S
C1410      F1415   1.382       .  S
C1410      F1416   1.385       .  S
C1417      C1418   1.411       .  A
C1417      C1422   1.403       .  A
C1417      H1424   1.084       .  S
C1418      C1419   1.426       .  A
C1419      C1420   1.405       .  A
C1419      C2906   1.523       .  S
C1420      C1421   1.409       .  A
C1420      H2905   1.082       .  S
C1421      C1422   1.423       .  A
C1421      C2278   1.509   1_556  S
C1422      C1423   1.519       .  S
C1423      F1427   1.385       .  S
C1423      F1428   1.375   1_556  S
C1423      F1429   1.383       .  S
H1425      C2900   1.082   1_455  S
C1426      C2899   1.523   1_455  S
C1426      F1430   1.382   1_455  S
C1426      F2911   1.382       .  S
C1426      F1432   1.385       .  S
F1431      C2906   1.382       .  S
C1433      C1434   1.398       .  A
C1433      C1438   1.394       .  A
C1433      H1440   1.086       .  S
C1434      C1435   1.409       .  A
C1435      C1436   1.409       .  A
C1435      C1442   1.515       .  S
C1436      C1437   1.415       .  A
C1436      H1441   1.081       .  S
C1437      C1438   1.425       .  A
C1437      C2277   1.508   1_556  S
C1438      C1439   1.521   1_556  S
C1439      F1443   1.384       .  S
C1439      F1444   1.372       .  S
C1439      F1445   1.383       .  S
C1442      F1446   1.383       .  S
C1442      F1447   1.382       .  S
C1442      F1448   1.384       .  S
C1449      C1450   1.402       .  A
C1449      C1454   1.396       .  A
C1449      H1456   1.085       .  S
C1450      C1451   1.413       .  A
C1451      C1452   1.409       .  A
C1451      C1458   1.517       .  S
C1452      C1453   1.412       .  A
C1452      H1457   1.081       .  S
C1453      C1454   1.417       .  A
C1454      C1455   1.519   1_556  S
C1455      F1459   1.382       .  S
C1455      F1460   1.382       .  S
C1455      F1461   1.385       .  S
C1458      F1462   1.381       .  S
C1458      F1463   1.383       .  S
C1458      F1464   1.384       .  S
C1465      C1466   1.400       .  A
C1465      C1470   1.403       .  A
C1465      H1472   1.083       .  S
C1466      C1467   1.419       .  A
C1467      C1468   1.409       .  A
C1467      C1474   1.519       .  S
C1468      C1469   1.408       .  A
C1468      H2953   1.084       .  S
C1469      C1470   1.427       .  A
C1470      C1471   1.524       .  S
C1471      F1475   1.385       .  S
C1471      F1477   1.381       .  S
H1473      C2948   1.084   1_455  S
C1474      F1478   1.383       .  S
C1474      F1479   1.382       .  S
C1474      F2960   1.385       .  S
F1480      C2954   1.385   1_455  S
C1481      C1482   1.408       .  A
C1481      C1486   1.409       .  A
C1481      C2206   1.485       .  S
C1482      C1483   1.403       .  A
C1482      H1487   1.081       .  S
C1483      C1484   1.397       .  A
C1483      C2174   1.475       .  S
C1484      C1485   1.395       .  A
C1484      H1488   1.086       .  S
C1485      C1486   1.400       .  A
C1485      C2190   1.479       .  S
C1486      H1489   1.082       .  S
C1490      C1491   1.407       .  A
C1490      C1495   1.402       .  A
C1490      C2126   1.485       .  S
C1491      C1492   1.408       .  A
C1491      H1496   1.074       .  S
C1492      C1493   1.409       .  A
C1492      C2158   1.506       .  S
C1493      C1494   1.394       .  A
C1493      H1497   1.078       .  S
C1494      C1495   1.402       .  A
C1494      C2142   1.484       .  S
C1495      H1498   1.083       .  S
C1499      C1500   1.409       .  A
C1499      C1504   1.410       .  A
C1499      C2078   1.494       .  S
C1500      C1501   1.403       .  A
C1500      H1505   1.079       .  S
C1501      C1502   1.406       .  A
C1501      C2110   1.486       .  S
C1502      C1503   1.399       .  A
C1502      H1506   1.084       .  S
C1503      C1504   1.400       .  A
C1503      C2094   1.484       .  S
C1504      H1507   1.084       .  S
C1508      C1509   1.403       .  A
C1508      C1513   1.399       .  A
C1508      C2033   1.485       .  S
C1509      C1510   1.417       .  A
C1509      H1514   1.080       .  S
C1510      C1511   1.405       .  A
C1510      C2046   1.511       .  S
C1511      C1512   1.406       .  A
C1511      H1515   1.071       .  S
C1512      C1513   1.404       .  A
C1512      C2062   1.499       .  S
C1513      H1516   1.083       .  S
C1517      C1518   1.400       .  A
C1517      C1522   1.399       .  A
C1517      C2017   1.484       .  S
C1518      C1519   1.413       .  A
C1518      H1523   1.083       .  S
C1519      C1520   1.411       .  A
C1519      C2001   1.508       .  S
C1520      C1521   1.413       .  A
C1520      H1524   1.079       .  S
C1521      C1522   1.405       .  A
C1521      C1985   1.495       .  S
C1522      H1525   1.083       .  S
C1526      C1527   1.378       .  D
C1526      C2113   1.500   1_556  S
C1526      C2933   1.500       .  S
C1527      C1982   1.509   1_556  S
C1527      C2805   1.506       .  S
C1528      C1529   1.412       .  A
C1528      C1533   1.409       .  A
C1528      C1934   1.499       .  S
C1529      C1530   1.404       .  A
C1529      H1534   1.083       .  S
C1530      C1531   1.393       .  A
C1530      C1966   1.480       .  S
C1531      C1532   1.400       .  A
C1531      H1535   1.083       .  S
C1532      C1533   1.407       .  A
C1532      C1950   1.494       .  S
C1533      H1536   1.075       .  S
C1537      C1538   1.386       .  D
C1537      C1969   1.517       .  S
C1538      C1998   1.511       .  S
C1539      C1540   1.378       .  D
C1539      C2097   1.497   1_556  S
C1539      C2145   1.507       .  S
C1540      C1953   1.519   1_556  S
C1540      C2049   1.506       .  S
O1541     Cr1559   1.999       .  S
O1542     Cr1559   2.007       .  S
O1542      C2283   1.265       .  A
C1543      C1902   1.495       .  S
C1543      O2282   1.265       .  A
C1543      O1544   1.258       .  A
O1544     Cr1560   1.984       .  S
O1545     Cr1560   1.999       .  S
C1546      C1918   1.490       .  S
C1546      O2287   1.263   1_545  A
O1547     Cr1561   1.990       .  S
O1547      C2286   1.263       .  A
O1548     Cr1561   1.987       .  S
O1548      C1549   1.258       .  A
C1549      C1889   1.496       .  S
O1550     Cr1559   2.006       .  S
O1551     Cr1559   1.996       .  S
O1551      C2292   1.264       .  A
C1552      C2030   1.483       .  S
C1552      O2291   1.264   1_545  A
C1552      O1553   1.265       .  A
O1553     Cr1560   2.005       .  S
O1554     Cr1560   1.992       .  S
C1555      C2209   1.492       .  S
C1555      O2296   1.258       .  A
O1556     Cr1561   1.988       .  S
O1556      C2295   1.258       .  A
O1557     Cr1561   1.991       .  S
O1557      C1558   1.265       .  A
C1558      C2129   1.486       .  S
Cr1559     O1562   1.774       .  S
Cr1560     O2302   1.774   1_545  S
O1562     Cr2300   1.774       .  S
C1563      C1564   1.401       .  A
C1563      C1568   1.398       .  A
C1563      C1921   1.486       .  S
C1564      C1565   1.415       .  A
C1564      H1569   1.074       .  S
C1565      C1566   1.413       .  A
C1565      C1870   1.515       .  S
C1566      C1567   1.400       .  A
C1566      H1570   1.079       .  S
C1567      C1568   1.399       .  A
C1567      C1854   1.477       .  S
C1568      H1571   1.084       .  S
C1572      C1573   1.412       .  A
C1572      C1577   1.401       .  A
C1572      C1806   1.492       .  S
C1573      C1574   1.416       .  A
C1573      H1578   1.071       .  S
C1574      C1575   1.409       .  A
C1574      C1838   1.516       .  S
C1575      C1576   1.401       .  A
C1575      H1579   1.082       .  S
C1576      C1577   1.400       .  A
C1576      C1822   1.488       .  S
C1577      H1580   1.083       .  S
C1581      C1582   1.408       .  A
C1581      C1586   1.403       .  A
C1581      C1905   1.485       .  S
C1582      C1583   1.406       .  A
C1582      H1587   1.080       .  S
C1583      C1584   1.406       .  A
C1583      C1790   1.488       .  S
C1584      C1585   1.395       .  A
C1584      H1588   1.085       .  S
C1585      C1586   1.397       .  A
C1585      C1777   1.476       .  S
C1586      H1589   1.083       .  S
C1590      C1591   1.410       .  A
C1590      C1595   1.414       .  A
C1590      C1758   1.497       .  S
C1591      C1592   1.405       .  A
C1591      H1596   1.075       .  S
C1592      C1593   1.400       .  A
C1592      C1742   1.491       .  S
C1593      C1594   1.401       .  A
C1593      H1597   1.084       .  S
C1594      C1595   1.403       .  A
C1594      C1726   1.502       .  S
C1595      H1598   1.077       .  S
C1599      C1600   1.385       .  D
C1599      C1710   1.508       .  S
C1600      C1729   1.521       .  S
C1601      C1602   1.386       .  D
C1601      C1841   1.519       .  S
C1601      C2613   1.492       .  S
C1602      C1745   1.509       .  S
C1602      C2514   1.525       .  S
C1603      C1604   1.408       .  A
C1603      C1608   1.413       .  A
C1603      C1678   1.490       .  S
C1604      C1605   1.402       .  A
C1604      H1609   1.081       .  S
C1605      C1606   1.400       .  A
C1605      C1713   1.485       .  S
C1606      C1607   1.400       .  A
C1606      H1610   1.085       .  S
C1607      C1608   1.408       .  A
C1607      C1662   1.494       .  S
C1608      H1611   1.081       .  S
C1612      C1613   1.404       .  A
C1612      C1617   1.408       .  A
C1612      C1886   1.507       .  S
C1613      C1614   1.412       .  A
C1613      H1618   1.079       .  S
C1614      C1615   1.411       .  A
C1614      C1697   1.505       .  S
C1615      C1616   1.410       .  A
C1615      H1619   1.081       .  S
C1616      C1617   1.406       .  A
C1616      C1649   1.502       .  S
C1617      H1620   1.079       .  S
C1621      C1622   1.377       .  D
C1621      C1646   1.513       .  S
C1621      C1825   1.503       .  S
C1622      C1665   1.504       .  S
C1622      C1793   1.496       .  S
O1623      C1631   1.263       .  A
O1624     Cr2381   1.997       .  S
O1624      C1625   1.264       .  A
C1625      C2081   1.499       .  S
C1625      O1626   1.257       .  A
O1626     Cr1642   1.986       .  S
O1627      C1628   1.263       .  A
C1628      C2014   1.488       .  S
C1628      O1629   1.265       .  A
O1629     Cr2383   2.008       .  S
O1630     Cr1643   1.994       .  S
O1630      C1631   1.264       .  A
C1631      C1937   1.482       .  S
O1632      C1640   1.263       .  A
O1633     Cr2381   2.004       .  S
O1633      C1634   1.266       .  A
C1634      C1809   1.495       .  S
C1634      O1635   1.264       .  A
O1635     Cr1642   1.992       .  S
O1636      C1637   1.260       .  A
C1637      C1761   1.497       .  S
C1637      O1638   1.265       .  A
O1638     Cr2383   1.998       .  S
O1639     Cr1643   1.994       .  S
O1639      C1640   1.264       .  A
C1640      C1681   1.490       .  S
Cr1641     O2364   1.997   1_545  S
Cr1641     O2373   2.004   1_545  S
Cr1643     O2369   2.008   1_545  S
Cr1643     O2378   1.998   1_545  S
Cr1643     O2384   1.778   1_545  S
O1644     Cr2383   1.778       .  S
C1645      C1646   1.407       .  A
C1645      C1650   1.403       .  A
C1645      H1652   1.080       .  S
C1646      C1647   1.424       .  A
C1647      C1648   1.404       .  A
C1647      C1654   1.517       .  S
C1648      C1649   1.406       .  A
C1648      H1653   1.082       .  S
C1649      C1650   1.420       .  A
C1650      C1651   1.513       .  S
C1651      F1655   1.385       .  S
C1651      F1656   1.381       .  S
C1651      F1657   1.379       .  S
C1654      F1658   1.385       .  S
C1654      F1659   1.381       .  S
C1654      F1660   1.382       .  S
C1661      C1662   1.405       .  A
C1661      C1666   1.399       .  A
C1661      H1668   1.085       .  S
C1662      C1663   1.419       .  A
C1663      C1664   1.413       .  A
C1663      C1670   1.514       .  S
C1664      C1665   1.408       .  A
C1664      H1669   1.081       .  S
C1665      C1666   1.417       .  A
C1666      C1667   1.518       .  S
C1667      F1671   1.385       .  S
C1667      F1672   1.381       .  S
C1667      F1673   1.382       .  S
C1670      F1674   1.383       .  S
C1670      F1675   1.380       .  S
C1670      F1676   1.385       .  S
C1677      C1678   1.407       .  A
C1677      C1682   1.413       .  A
C1677      H1684   1.083       .  S
C1678      C1679   1.417       .  A
C1679      C1680   1.404       .  A
C1679      C1686   1.518       .  S
C1680      C1681   1.405       .  A
C1680      H1685   1.083       .  S
C1681      C1682   1.419       .  A
C1683      F1687   1.385   1_455  S
C1683      F1688   1.381       .  S
C1683      F1689   1.383   1_455  S
C1686      F1690   1.378       .  S
C1686      F1691   1.383       .  S
C1686      F1692   1.383       .  S
C1693      C1694   1.407       .  A
C1693      C1698   1.405       .  A
C1693      H1700   1.081       .  S
C1694      C1695   1.424   1_655  A
C1695      C1696   1.400   1_455  A
C1696      C1697   1.405       .  A
C1696      H1701   1.079       .  S
C1697      C1698   1.422       .  A
C1698      C1699   1.511       .  S
C1699      F1703   1.385       .  S
C1699      F1704   1.382       .  S
C1699      F1705   1.378       .  S
C1702      F1706   1.383       .  S
C1702      F1707   1.374       .  S
C1702      F1708   1.385       .  S
C1709      C1710   1.413       .  A
C1709      C1714   1.414       .  A
C1709      H1716   1.082       .  S
C1710      C1711   1.426       .  A
C1711      C1712   1.394       .  A
C1711      C1718   1.520       .  S
C1712      C1713   1.397       .  A
C1712      H1717   1.086       .  S
C1713      C1714   1.414       .  A
C1714      C1715   1.516       .  S
C1715      F1720   1.382       .  S
C1715      F1721   1.383       .  S
C1718      F1722   1.383       .  S
C1718      F1723   1.370       .  S
C1718      F1724   1.385       .  S
C1725      C1726   1.409       .  A
C1725      C1730   1.406       .  A
C1725      H1732   1.085       .  S
C1726      C1727   1.421       .  A
C1727      C1728   1.405       .  A
C1727      C1734   1.524       .  S
C1728      C1729   1.413       .  A
C1728      H1733   1.082       .  S
C1729      C1730   1.428       .  A
C1730      C1731   1.520       .  S
C1731      F1735   1.385       .  S
C1731      F1736   1.383       .  S
C1731      F1737   1.373       .  S
C1734      F1738   1.381       .  S
C1734      F1739   1.383       .  S
C1734      F1740   1.386       .  S
C1741      C1742   1.398       .  A
C1741      C1746   1.394       .  A
C1741      H1748   1.086       .  S
C1742      C1743   1.418       .  A
C1743      C1744   1.415       .  A
C1743      C1750   1.517       .  S
C1744      C1745   1.413       .  A
C1744      H2489   1.082       .  S
C1745      C1746   1.426       .  A
C1746      C1747   1.517       .  S
C1747      F1751   1.383       .  S
C1747      F1752   1.367       .  S
C1747      F1753   1.384       .  S
H1749      C2484   1.082       .  S
C1750      F1754   1.382       .  S
C1750      F1755   1.383       .  S
C1750      F2496   1.384       .  S
F1756      C2490   1.384       .  S
C1757      C1758   1.402       .  A
C1757      C1762   1.405       .  A
C1757      H1764   1.082       .  S
C1758      C1759   1.423       .  A
C1759      C1760   1.412       .  A
C1759      C1766   1.521       .  S
C1760      C1761   1.407       .  A
C1760      H1765   1.083       .  S
C1761      C1762   1.427       .  A
C1762      C1763   1.522       .  S
C1763      F1767   1.385       .  S
C1763      F1768   1.377       .  S
C1763      F1769   1.383       .  S
C1766      F1770   1.381       .  S
C1766      F1771   1.384       .  S
C1766      F1772   1.385       .  S
C1773      C1774   1.415       .  A
C1773      C1778   1.397       .  A
C1773      H2520   1.080       .  S
C1774      C1775   1.435       .  A
C1774      C2342   1.525   1_545  S
C1775      C1776   1.411       .  A
C1775      C1782   1.513       .  S
C1776      C1777   1.397       .  A
C1776      H1781   1.085       .  S
C1777      C1778   1.406       .  A
C1778      C1779   1.519       .  S
C1779      F2523   1.385       .  S
C1779      F1784   1.376       .  S
C1779      F2525   1.384       .  S
H1780      C2513   1.080       .  S
C1782      F1786   1.382       .  S
C1782      F1787   1.371   1_545  S
C1782      F1788   1.385   1_545  S
F1783      C2519   1.385       .  S
F1785      C2519   1.384       .  S
C1789      C1790   1.400       .  A
C1789      C1794   1.391       .  A
C1789      H1796   1.079       .  S
C1790      C1791   1.420       .  A
C1791      C1792   1.414       .  A
C1791      C1798   1.517       .  S
C1792      C1793   1.409       .  A
C1792      H1797   1.082       .  S
C1793      C1794   1.415       .  A
C1794      C1795   1.519       .  S
C1795      F1799   1.385       .  S
C1795      F1800   1.379       .  S
C1795      F1801   1.382       .  S
C1798      F1802   1.383       .  S
C1798      F1803   1.381       .  S
C1798      F1804   1.384       .  S
C1805      C1806   1.408       .  A
C1805      C1810   1.411       .  A
C1805      H1812   1.083       .  S
C1806      C1807   1.414       .  A
C1807      C1808   1.410       .  A
C1807      C1814   1.519       .  S
C1808      C1809   1.411       .  A
C1808      H1813   1.083       .  S
C1809      C1810   1.420       .  A
C1810      C1811   1.520       .  S
C1811      F1815   1.385       .  S
C1811      F1816   1.381       .  S
C1811      F1817   1.383       .  S
C1814      F1818   1.380       .  S
C1814      F1819   1.383       .  S
C1814      F1820   1.385       .  S
C1821      C1822   1.403       .  A
C1821      C1826   1.403       .  A
C1821      H1828   1.083       .  S
C1822      C1823   1.420       .  A
C1823      C1824   1.399       .  A
C1823      C1830   1.518       .  S
C1824      C1825   1.406       .  A
C1824      H1829   1.082       .  S
C1825      C1826   1.423       .  A
C1826      C1827   1.517       .  S
C1827      F1831   1.384       .  S
C1827      F1832   1.380       .  S
C1827      F1833   1.382       .  S
C1830      F1834   1.382       .  S
C1830      F1835   1.383       .  S
C1830      F1836   1.384       .  S
C1837      C1838   1.416       .  A
C1837      C1842   1.408       .  A
C1837      H1844   1.082       .  S
C1838      C1839   1.424       .  A
C1839      C1840   1.409       .  A
C1839      C1846   1.522       .  S
C1840      C1841   1.412       .  A
C1840      H2585   1.079       .  S
C1841      C1842   1.419       .  A
C1842      C1843   1.516       .  S
C1843      F1847   1.385       .  S
C1843      F1848   1.382       .  S
C1843      F1849   1.376       .  S
H1845      C2580   1.079   1_545  S
C1846      F1850   1.382       .  S
C1846      F1851   1.383       .  S
C1846      F2592   1.386       .  S
F1852      C2586   1.386   1_545  S
C1853      C1854   1.401       .  A
C1853      C1858   1.410       .  A
C1853      H1860   1.085       .  S
C1854      C1855   1.414       .  A
C1855      C1856   1.396       .  A
C1855      C1862   1.523       .  S
C1856      C1857   1.408       .  A
C1856      H1861   1.082       .  S
C1857      C1858   1.431       .  A
C1859      F1863   1.383       .  S
C1859      F1864   1.375       .  S
C1859      F1865   1.384       .  S
C1862      F1866   1.380       .  S
C1862      F1867   1.383       .  S
C1862      F1868   1.385       .  S
C1869      C1870   1.418       .  A
C1869      C1874   1.406       .  A
C1869      H1876   1.076       .  S
C1870      C1871   1.425       .  A
C1871      C1872   1.400       .  A
C1871      C2618   1.522       .  S
C1872      C1873   1.403       .  A
C1872      H2617   1.085   1_545  S
C1873      C1874   1.415       .  A
C1873      C2341   1.492   1_545  S
C1874      C1875   1.522       .  S
C1875      F1879   1.383       .  S
C1875      F1880   1.379       .  S
C1875      F1881   1.384       .  S
H1877      C2612   1.085       .  S
C1878      C2611   1.522       .  S
C1878      F2622   1.383       .  S
C1878      F1883   1.384       .  S
C1878      F1884   1.384       .  S
F1882      C2618   1.383       .  S
C1885      C1886   1.406       .  A
C1885      C1890   1.404       .  A
C1885      H1892   1.081       .  S
C1886      C1887   1.429       .  A
C1887      C1888   1.410       .  A
C1887      C1894   1.520       .  S
C1888      C1889   1.404       .  A
C1889      C1890   1.426       .  A
C1890      C1891   1.525       .  S
C1891      F1895   1.385       .  S
C1891      F1896   1.384       .  S
C1891      F1897   1.381       .  S
C1894      F1899   1.382   1_655  S
C1901      C1902   1.405       .  A
C1901      C1906   1.403       .  A
C1901      H1908   1.076       .  S
C1902      C1903   1.423       .  A
C1903      C1904   1.411       .  A
C1903      C1910   1.517       .  S
C1904      C1905   1.404       .  A
C1904      H1909   1.083       .  S
C1905      C1906   1.416       .  A
C1906      C1907   1.523       .  S
C1907      F1911   1.383       .  S
C1907      F1912   1.384       .  S
C1907      F1913   1.380       .  S
C1910      F1914   1.383       .  S
C1910      F1915   1.380       .  S
C1910      F1916   1.385       .  S
C1917      C1918   1.406       .  A
C1917      C1922   1.403       .  A
C1917      H1924   1.082       .  S
C1918      C1919   1.428       .  A
C1919      C1920   1.412       .  A
C1919      C1926   1.521   1_545  S
C1920      C1921   1.403       .  A
C1920      H1925   1.085       .  S
C1921      C1922   1.417       .  A
C1922      C1923   1.523       .  S
C1923      F1927   1.385       .  S
C1923      F1928   1.384       .  S
C1923      F1929   1.381       .  S
C1926      F2670   1.383       .  S
C1926      F1932   1.384   1_565  S
F1930      C2666   1.383       .  S
C1933      C1934   1.409       .  A
C1933      C1938   1.408       .  A
C1933      H1940   1.083       .  S
C1934      C1935   1.425       .  A
C1935      C1936   1.410       .  A
C1935      C1942   1.519       .  S
C1936      C1937   1.401       .  A
C1936      H1941   1.085       .  S
C1937      C1938   1.415       .  A
C1939      F1943   1.385   1_455  S
C1939      F1944   1.382   1_455  S
C1939      F1945   1.382       .  S
C1942      F1946   1.382       .  S
C1942      F1947   1.383       .  S
C1942      F1948   1.383       .  S
C1949      C1950   1.410       .  A
C1949      C1954   1.408       .  A
C1949      H1956   1.084       .  S
C1950      C1951   1.417       .  A
C1951      C1952   1.396       .  A
C1951      C1958   1.526       .  S
C1952      C1953   1.413       .  A
C1952      H1957   1.074       .  S
C1953      C1954   1.427       .  A
C1954      C1955   1.519       .  S
C1955      F1959   1.384   1_554  S
C1955      F1960   1.374   1_554  S
C1955      F1961   1.382       .  S
C1958      F1962   1.383       .  S
C1958      F1963   1.381       .  S
C1958      F1964   1.386       .  S
C1965      C1966   1.401       .  A
C1965      C1970   1.412       .  A
C1965      H1972   1.085       .  S
C1966      C1967   1.413       .  A
C1967      C1968   1.396       .  A
C1967      C1974   1.525       .  S
C1968      C1969   1.412       .  A
C1968      H1973   1.082   1_554  S
C1969      C1970   1.433       .  A
C1970      C1971   1.518       .  S
C1971      F1975   1.384       .  S
C1971      F1976   1.374       .  S
C1971      F1977   1.383       .  S
C1974      F1978   1.384       .  S
C1974      F1979   1.381   1_554  S
C1974      F1980   1.386   1_554  S
C1981      C1982   1.406       .  A
C1981      C1986   1.398       .  A
C1981      H1988   1.081       .  S
C1982      C1983   1.425       .  A
C1983      C1984   1.407       .  A
C1983      C2730   1.517       .  S
C1984      C1985   1.405       .  A
C1984      H1989   1.083       .  S
C1985      C1986   1.416       .  A
C1986      C1987   1.512       .  S
C1987      F1991   1.379       .  S
C1987      F1992   1.381       .  S
C1987      F1993   1.382       .  S
C1990      C2723   1.517   1_545  S
C1990      F1994   1.382       .  S
C1990      F1995   1.382       .  S
C1990      F1996   1.385       .  S
C1997      C1998   1.401       .  A
C1997      C2002   1.405       .  A
C1997      H2004   1.082       .  S
C1998      C1999   1.427       .  A
C1999      C2000   1.402       .  A
C2000      C2001   1.405       .  A
C2000      H2005   1.083       .  S
C2001      C2002   1.427       .  A
C2002      C2003   1.510       .  S
C2003      F2007   1.386       .  S
C2003      F2008   1.378       .  S
C2003      F2009   1.381       .  S
C2006      F2010   1.376       .  S
C2006      F2011   1.382       .  S
C2006      F2012   1.385       .  S
C2013      C2014   1.406       .  A
C2013      C2018   1.406       .  A
C2013      H2020   1.080       .  S
C2014      C2015   1.418       .  A
C2015      C2016   1.412       .  A
C2015      C2022   1.518       .  S
C2016      C2017   1.405       .  A
C2016      H2021   1.083       .  S
C2017      C2018   1.412       .  A
C2018      C2019   1.518       .  S
C2019      F2023   1.385       .  S
C2019      F2024   1.382       .  S
C2019      F2025   1.384       .  S
C2022      F2766   1.383       .  S
C2022      F2027   1.382       .  S
C2022      F2028   1.385       .  S
F2026      C2762   1.383       .  S
C2029      C2030   1.405       .  A
C2029      C2034   1.415       .  A
C2029      H2036   1.083       .  S
C2030      C2031   1.414       .  A
C2031      C2032   1.402       .  A
C2031      C2038   1.511       .  S
C2032      C2033   1.399       .  A
C2032      H2037   1.083       .  S
C2033      C2034   1.419       .  A
C2034      C2035   1.517       .  S
C2035      F2039   1.384       .  S
C2035      F2040   1.382       .  S
C2035      F2041   1.383       .  S
C2038      F2042   1.382       .  S
C2038      F2043   1.383       .  S
C2038      F2044   1.384       .  S
C2045      C2046   1.407       .  A
C2045      C2050   1.401       .  A
C2045      H2052   1.081       .  S
C2046      C2047   1.431       .  A
C2047      C2048   1.409       .  A
C2047      C2054   1.524       .  S
C2048      C2049   1.406       .  A
C2048      H2053   1.085   1_556  S
C2049      C2050   1.425       .  A
C2050      C2051   1.518       .  S
C2051      F2055   1.383       .  S
C2051      F2056   1.370       .  S
C2051      F2057   1.384       .  S
C2054      F2058   1.382       .  S
C2054      F2059   1.383       .  S
C2054      F2060   1.385   1_556  S
C2061      C2062   1.408       .  A
C2061      C2066   1.400       .  A
C2061      H2068   1.081       .  S
C2062      C2063   1.419       .  A
C2063      C2064   1.402       .  A
C2063      C2070   1.516       .  S
C2064      C2065   1.409       .  A
C2064      H2069   1.082       .  S
C2065      C2066   1.421       .  A
C2065      C2267   1.506   1_545  S
C2066      C2807   1.518   1_545  S
C2067      C2806   1.518       .  S
C2067      F2071   1.382       .  S
C2067      F2812   1.381       .  S
C2067      F2073   1.385       .  S
C2070      F2074   1.382       .  S
C2070      F2075   1.383       .  S
C2070      F2076   1.383       .  S
F2072      C2807   1.381       .  S
C2077      C2078   1.402       .  A
C2077      C2082   1.405       .  A
C2077      H2084   1.082       .  S
C2078      C2079   1.421       .  A
C2079      C2080   1.408       .  A
C2079      C2086   1.520       .  S
C2080      C2081   1.407       .  A
C2080      H2085   1.081       .  S
C2081      C2082   1.430       .  A
C2082      C2083   1.525       .  S
C2083      F2087   1.385       .  S
C2083      F2088   1.383       .  S
C2083      F2089   1.384       .  S
C2086      F2090   1.383       .  S
C2086      F2091   1.382       .  S
C2086      F2832   1.384       .  S
F2092      C2826   1.384       .  S
C2093      C2094   1.406       .  A
C2093      C2098   1.413       .  A
C2093      H2100   1.084       .  S
C2094      C2095   1.416       .  A
C2095      C2096   1.393   1_554  A
C2095      C2102   1.515   1_554  S
C2096      C2097   1.402   1_556  A
C2096      H2101   1.083       .  S
C2097      C2098   1.422       .  A
C2098      C2099   1.516       .  S
C2099      F2103   1.384       .  S
C2099      F2104   1.380       .  S
C2099      F2105   1.383       .  S
C2102      F2106   1.383   1_556  S
C2102      F2107   1.378       .  S
C2102      F2108   1.385       .  S
C2109      C2110   1.398       .  A
C2109      C2114   1.391       .  A
C2109      H2116   1.079       .  S
C2110      C2111   1.417       .  A
C2111      C2112   1.416       .  A
C2111      C2118   1.517       .  S
C2112      C2113   1.413       .  A
C2112      H2117   1.082       .  S
C2113      C2114   1.417       .  A
C2114      C2115   1.520   1_554  S
C2115      F2119   1.382       .  S
C2115      F2120   1.382       .  S
C2115      F2121   1.380       .  S
C2118      F2122   1.381       .  S
C2118      F2123   1.383       .  S
C2118      F2124   1.385       .  S
C2125      C2126   1.399       .  A
C2125      C2130   1.405       .  A
C2125      H2132   1.083       .  S
C2126      C2127   1.420       .  A
C2127      C2128   1.410       .  A
C2127      C2134   1.520       .  S
C2128      C2129   1.404       .  A
C2128      H2133   1.083       .  S
C2129      C2130   1.424       .  A
C2130      C2131   1.520       .  S
C2131      F2135   1.385       .  S
C2131      F2136   1.382       .  S
C2131      F2137   1.377       .  S
C2134      F2138   1.383       .  S
C2134      F2139   1.381       .  S
C2134      F2140   1.385       .  S
C2141      C2142   1.400       .  A
C2141      C2146   1.405       .  A
C2141      H2148   1.085       .  S
C2142      C2143   1.417       .  A
C2143      C2144   1.403       .  A
C2143      C2150   1.523   1_556  S
C2144      C2145   1.409       .  A
C2144      H2149   1.083   1_556  S
C2145      C2146   1.427       .  A
C2146      C2147   1.514       .  S
C2147      F2151   1.385       .  S
C2147      F2152   1.373       .  S
C2147      F2153   1.381       .  S
C2150      F2154   1.384   1_554  S
C2150      F2155   1.382       .  S
C2150      F2156   1.385       .  S
C2157      C2158   1.411       .  A
C2157      C2162   1.403       .  A
C2157      H2164   1.084       .  S
C2158      C2159   1.426       .  A
C2159      C2160   1.405       .  A
C2160      C2161   1.409       .  A
C2161      C2162   1.423       .  A
C2162      C2163   1.519       .  S
C2163      F2167   1.385       .  S
C2163      F2168   1.375   1_556  S
C2163      F2169   1.383       .  S
C2166      F2170   1.382       .  S
C2166      F2172   1.385       .  S
C2173      C2174   1.398       .  A
C2173      C2178   1.394       .  A
C2173      H2180   1.086       .  S
C2174      C2175   1.409       .  A
C2175      C2176   1.409       .  A
C2175      C2182   1.515       .  S
C2176      C2177   1.415       .  A
C2176      H2181   1.081       .  S
C2177      C2178   1.425       .  A
C2178      C2179   1.521   1_556  S
C2179      F2183   1.384       .  S
C2179      F2184   1.372       .  S
C2179      F2185   1.383       .  S
C2182      F2186   1.383       .  S
C2182      F2187   1.382       .  S
C2182      F2188   1.384       .  S
C2189      C2190   1.402       .  A
C2189      C2194   1.396       .  A
C2189      H2196   1.085       .  S
C2190      C2191   1.413       .  A
C2191      C2192   1.409       .  A
C2191      C2198   1.517       .  S
C2192      C2193   1.412       .  A
C2192      H2197   1.081       .  S
C2193      C2194   1.417       .  A
C2193      C2266   1.500   1_545  S
C2194      C2195   1.519   1_556  S
C2195      F2199   1.382       .  S
C2195      F2200   1.382       .  S
C2195      F2201   1.385       .  S
C2198      F2202   1.381       .  S
C2198      F2203   1.383       .  S
C2198      F2204   1.384       .  S
C2205      C2206   1.400       .  A
C2205      C2210   1.403       .  A
C2205      H2212   1.083       .  S
C2206      C2207   1.419       .  A
C2207      C2208   1.409       .  A
C2207      C2214   1.519       .  S
C2208      C2209   1.408       .  A
C2209      C2210   1.427       .  A
C2210      C2211   1.524       .  S
C2211      F2215   1.385       .  S
C2211      F2956   1.383   1_545  S
C2211      F2217   1.381       .  S
C2214      F2218   1.383       .  S
C2214      F2219   1.382   1_655  S
F2216      C2951   1.383       .  S
C2221      C2222   1.408       .  A
C2221      C2226   1.409       .  A
C2221      C2946   1.485       .  S
C2222      C2223   1.403       .  A
C2222      H2227   1.081       .  S
C2223      C2224   1.397       .  A
C2223      C2914   1.475       .  S
C2224      C2225   1.395       .  A
C2224      H2228   1.086       .  S
C2225      C2226   1.401       .  A
C2225      C2930   1.479       .  S
C2226      H2229   1.082       .  S
C2230      C2231   1.407       .  A
C2230      C2235   1.402       .  A
C2230      C2866   1.485       .  S
C2231      C2232   1.408       .  A
C2231      H2236   1.074       .  S
C2232      C2233   1.409       .  A
C2232      C2898   1.506       .  S
C2233      C2234   1.394       .  A
C2233      H2237   1.078       .  S
C2234      C2235   1.402       .  A
C2234      C2882   1.484       .  S
C2235      H2238   1.083       .  S
C2239      C2240   1.409       .  A
C2239      C2244   1.410       .  A
C2239      C2818   1.494       .  S
C2240      C2241   1.403       .  A
C2240      H2245   1.079       .  S
C2241      C2242   1.406       .  A
C2241      C2850   1.486       .  S
C2242      C2243   1.399       .  A
C2242      H2246   1.084       .  S
C2243      C2244   1.400       .  A
C2243      C2834   1.484       .  S
C2244      H2247   1.084       .  S
C2248      C2249   1.403       .  A
C2248      C2253   1.399       .  A
C2248      C2773   1.485       .  S
C2249      C2250   1.417       .  A
C2249      H2254   1.080       .  S
C2250      C2251   1.405       .  A
C2250      C2786   1.511       .  S
C2251      C2252   1.406       .  A
C2251      H2255   1.071       .  S
C2252      C2253   1.404       .  A
C2252      C2802   1.499       .  S
C2253      H2256   1.083       .  S
C2257      C2258   1.400       .  A
C2257      C2262   1.399       .  A
C2257      C2757   1.484       .  S
C2258      C2259   1.413       .  A
C2258      H2263   1.083       .  S
C2259      C2260   1.411       .  A
C2259      C2741   1.508       .  S
C2260      C2261   1.413       .  A
C2260      H2264   1.079       .  S
C2261      C2262   1.405       .  A
C2261      C2725   1.495       .  S
C2262      H2265   1.083       .  S
C2266      C2267   1.378       .  D
C2266      C2853   1.500   1_556  S
C2267      C2722   1.509   1_556  S
C2268      C2269   1.412       .  A
C2268      C2273   1.409       .  A
C2268      C2674   1.499       .  S
C2269      C2270   1.404       .  A
C2269      H2274   1.083       .  S
C2270      C2271   1.393       .  A
C2270      C2706   1.480       .  S
C2271      C2272   1.400       .  A
C2271      H2275   1.083       .  S
C2272      C2273   1.407       .  A
C2272      C2690   1.494       .  S
C2273      H2276   1.075       .  S
C2277      C2278   1.386       .  D
C2277      C2709   1.517       .  S
C2278      C2738   1.511       .  S
C2279      C2280   1.378       .  D
C2279      C2837   1.497   1_556  S
C2279      C2885   1.507       .  S
C2280      C2693   1.519   1_556  S
C2280      C2789   1.506       .  S
O2281     Cr2299   1.999       .  S
O2282     Cr2299   2.007   1_545  S
C2283      C2642   1.495       .  S
C2283      O2284   1.258       .  A
O2284     Cr2300   1.984       .  S
O2285     Cr2300   1.999       .  S
C2286      C2658   1.490       .  S
O2287     Cr2301   1.990       .  S
O2288     Cr2301   1.987       .  S
O2288      C2289   1.258       .  A
C2289      C2629   1.496       .  S
O2290     Cr2299   2.006       .  S
O2291     Cr2299   1.996       .  S
C2292      C2770   1.483       .  S
C2292      O2293   1.265       .  A
O2293     Cr2300   2.005       .  S
O2294     Cr2300   1.992       .  S
C2295      C2949   1.492       .  S
O2296     Cr2301   1.988   1_545  S
O2297     Cr2301   1.991       .  S
O2297      C2298   1.265       .  A
C2298      C2869   1.486       .  S
Cr2299     O2302   1.774       .  S
C2303      C2304   1.401       .  A
C2303      C2308   1.398       .  A
C2303      C2661   1.486       .  S
C2304      C2305   1.415       .  A
C2304      H2309   1.074       .  S
C2305      C2306   1.413       .  A
C2305      C2610   1.515       .  S
C2306      C2307   1.400       .  A
C2306      H2310   1.079       .  S
C2307      C2308   1.399       .  A
C2307      C2594   1.477       .  S
C2308      H2311   1.084       .  S
C2312      C2313   1.412       .  A
C2312      C2317   1.401       .  A
C2312      C2546   1.492       .  S
C2313      C2314   1.416       .  A
C2313      H2318   1.071       .  S
C2314      C2315   1.409       .  A
C2314      C2578   1.516       .  S
C2315      C2316   1.401       .  A
C2315      H2319   1.082       .  S
C2316      C2317   1.400       .  A
C2316      C2562   1.488       .  S
C2317      H2320   1.083       .  S
C2321      C2322   1.408       .  A
C2321      C2326   1.404       .  A
C2321      C2645   1.485       .  S
C2322      C2323   1.406       .  A
C2322      H2327   1.080       .  S
C2323      C2324   1.406       .  A
C2323      C2530   1.488       .  S
C2324      C2325   1.395       .  A
C2324      H2328   1.085       .  S
C2325      C2326   1.397       .  A
C2325      C2517   1.476       .  S
C2326      H2329   1.083       .  S
C2330      C2331   1.410       .  A
C2330      C2335   1.414       .  A
C2330      C2498   1.497       .  S
C2331      C2332   1.405       .  A
C2331      H2336   1.075       .  S
C2332      C2333   1.400       .  A
C2332      C2482   1.491       .  S
C2333      C2334   1.401       .  A
C2333      H2337   1.084       .  S
C2334      C2335   1.403       .  A
C2334      C2466   1.502       .  S
C2335      H2338   1.077       .  S
C2339      C2340   1.385       .  D
C2339      C2450   1.508       .  S
C2340      C2469   1.521       .  S
C2341      C2342   1.386       .  D
C2341      C2581   1.519       .  S
C2342      C2485   1.509       .  S
C2343      C2344   1.408       .  A
C2343      C2348   1.413       .  A
C2343      C2418   1.490       .  S
C2344      C2345   1.402       .  A
C2344      H2349   1.081       .  S
C2345      C2346   1.400       .  A
C2345      C2453   1.485       .  S
C2346      C2347   1.400       .  A
C2346      H2350   1.085       .  S
C2347      C2348   1.408       .  A
C2347      C2402   1.494       .  S
C2348      H2351   1.081       .  S
C2352      C2353   1.404       .  A
C2352      C2357   1.408       .  A
C2352      C2626   1.507       .  S
C2353      C2354   1.412       .  A
C2353      H2358   1.079       .  S
C2354      C2355   1.411       .  A
C2354      C2437   1.505       .  S
C2355      C2356   1.410       .  A
C2355      H2359   1.081       .  S
C2356      C2357   1.406       .  A
C2356      C2389   1.502       .  S
C2357      H2360   1.079       .  S
C2361      C2362   1.377       .  D
C2361      C2386   1.513       .  S
C2361      C2565   1.503       .  S
C2362      C2405   1.504       .  S
C2362      C2533   1.496       .  S
O2363      C2371   1.263       .  A
O2364      C2365   1.264       .  A
C2365      C2821   1.499       .  S
C2365      O2366   1.257       .  A
O2366     Cr2382   1.986       .  S
O2367      C2368   1.263       .  A
C2368      C2754   1.488       .  S
C2368      O2369   1.265       .  A
O2370     Cr2383   1.994       .  S
O2370      C2371   1.264       .  A
C2371      C2677   1.482       .  S
O2372      C2380   1.263       .  A
O2373      C2374   1.266       .  A
C2374      C2549   1.495       .  S
C2374      O2375   1.264       .  A
O2375     Cr2382   1.992       .  S
O2376      C2377   1.260       .  A
C2377      C2501   1.497       .  S
C2377      O2378   1.265       .  A
O2379     Cr2383   1.994       .  S
O2379      C2380   1.264       .  A
C2380      C2421   1.490       .  S
C2385      C2386   1.407       .  A
C2385      C2390   1.403       .  A
C2385      H2392   1.080       .  S
C2386      C2387   1.424       .  A
C2387      C2388   1.404       .  A
C2387      C2394   1.517       .  S
C2388      C2389   1.406       .  A
C2388      H2393   1.082       .  S
C2389      C2390   1.420       .  A
C2390      C2391   1.513       .  S
C2391      F2395   1.385       .  S
C2391      F2396   1.381       .  S
C2391      F2397   1.379       .  S
C2394      F2398   1.385       .  S
C2394      F2399   1.381       .  S
C2394      F2400   1.382       .  S
C2401      C2402   1.405       .  A
C2401      C2406   1.399       .  A
C2401      H2408   1.085       .  S
C2402      C2403   1.419       .  A
C2403      C2404   1.413       .  A
C2403      C2410   1.514       .  S
C2404      C2405   1.408       .  A
C2404      H2409   1.081       .  S
C2405      C2406   1.417       .  A
C2406      C2407   1.518       .  S
C2407      F2411   1.385       .  S
C2407      F2412   1.381       .  S
C2407      F2413   1.382       .  S
C2410      F2414   1.383       .  S
C2410      F2415   1.380       .  S
C2410      F2416   1.385       .  S
C2417      C2418   1.407       .  A
C2417      C2422   1.413       .  A
C2417      H2424   1.083       .  S
C2418      C2419   1.417       .  A
C2419      C2420   1.404       .  A
C2419      C2426   1.518       .  S
C2420      C2421   1.405       .  A
C2420      H2425   1.083       .  S
C2421      C2422   1.419       .  A
C2423      F2427   1.385   1_455  S
C2423      F2428   1.381       .  S
C2423      F2429   1.383   1_455  S
C2426      F2430   1.378       .  S
C2426      F2431   1.383       .  S
C2426      F2432   1.383       .  S
C2433      C2434   1.407       .  A
C2433      C2438   1.405       .  A
C2433      H2440   1.081       .  S
C2434      C2435   1.424   1_655  A
C2435      C2436   1.400   1_455  A
C2436      C2437   1.405       .  A
C2436      H2441   1.079       .  S
C2437      C2438   1.422       .  A
C2438      C2439   1.511       .  S
C2439      F2443   1.385       .  S
C2439      F2444   1.382       .  S
C2439      F2445   1.378       .  S
C2442      F2446   1.383       .  S
C2442      F2447   1.374       .  S
C2442      F2448   1.385       .  S
C2449      C2450   1.413       .  A
C2449      C2454   1.414       .  A
C2449      H2456   1.082       .  S
C2450      C2451   1.426       .  A
C2451      C2452   1.394       .  A
C2451      C2458   1.520       .  S
C2452      C2453   1.397       .  A
C2452      H2457   1.086       .  S
C2453      C2454   1.414       .  A
C2454      C2455   1.516       .  S
C2455      F2460   1.382       .  S
C2455      F2461   1.383       .  S
C2458      F2462   1.383       .  S
C2458      F2463   1.370       .  S
C2458      F2464   1.385       .  S
C2465      C2466   1.409       .  A
C2465      C2470   1.406       .  A
C2465      H2472   1.085       .  S
C2466      C2467   1.422       .  A
C2467      C2468   1.405       .  A
C2467      C2474   1.524       .  S
C2468      C2469   1.413       .  A
C2468      H2473   1.082       .  S
C2469      C2470   1.428       .  A
C2470      C2471   1.520       .  S
C2471      F2475   1.385       .  S
C2471      F2476   1.383       .  S
C2471      F2477   1.373       .  S
C2474      F2478   1.381       .  S
C2474      F2479   1.383       .  S
C2474      F2480   1.386       .  S
C2481      C2482   1.399       .  A
C2481      C2486   1.394       .  A
C2481      H2488   1.086       .  S
C2482      C2483   1.418       .  A
C2483      C2484   1.415       .  A
C2483      C2490   1.517       .  S
C2484      C2485   1.413       .  A
C2485      C2486   1.426       .  A
C2486      C2487   1.517       .  S
C2487      F2491   1.383       .  S
C2487      F2492   1.367       .  S
C2487      F2493   1.384       .  S
C2490      F2494   1.382       .  S
C2490      F2495   1.383       .  S
C2497      C2498   1.402       .  A
C2497      C2502   1.405       .  A
C2497      H2504   1.082       .  S
C2498      C2499   1.423       .  A
C2499      C2500   1.412       .  A
C2499      C2506   1.521       .  S
C2500      C2501   1.407       .  A
C2500      H2505   1.083       .  S
C2501      C2502   1.427       .  A
C2502      C2503   1.522       .  S
C2503      F2507   1.385       .  S
C2503      F2508   1.377       .  S
C2503      F2509   1.383       .  S
C2506      F2510   1.381       .  S
C2506      F2511   1.384       .  S
C2506      F2512   1.385       .  S
C2513      C2514   1.415       .  A
C2513      C2518   1.397       .  A
C2514      C2515   1.435       .  A
C2515      C2516   1.411       .  A
C2515      C2522   1.513       .  S
C2516      C2517   1.397       .  A
C2516      H2521   1.085       .  S
C2517      C2518   1.406       .  A
C2518      C2519   1.519       .  S
C2519      F2524   1.376       .  S
C2522      F2526   1.382       .  S
C2522      F2527   1.371       .  S
C2522      F2528   1.385       .  S
C2529      C2530   1.400       .  A
C2529      C2534   1.391       .  A
C2529      H2536   1.079       .  S
C2530      C2531   1.420       .  A
C2531      C2532   1.414       .  A
C2531      C2538   1.517       .  S
C2532      C2533   1.409       .  A
C2532      H2537   1.082       .  S
C2533      C2534   1.415       .  A
C2534      C2535   1.519       .  S
C2535      F2539   1.385       .  S
C2535      F2540   1.379       .  S
C2535      F2541   1.382       .  S
C2538      F2542   1.383       .  S
C2538      F2543   1.381       .  S
C2538      F2544   1.384       .  S
C2545      C2546   1.408       .  A
C2545      C2550   1.411       .  A
C2545      H2552   1.083       .  S
C2546      C2547   1.414       .  A
C2547      C2548   1.410       .  A
C2547      C2554   1.519       .  S
C2548      C2549   1.411       .  A
C2548      H2553   1.083       .  S
C2549      C2550   1.420       .  A
C2550      C2551   1.520       .  S
C2551      F2555   1.385       .  S
C2551      F2556   1.381       .  S
C2551      F2557   1.383       .  S
C2554      F2558   1.380       .  S
C2554      F2559   1.383       .  S
C2554      F2560   1.385       .  S
C2561      C2562   1.403       .  A
C2561      C2566   1.403       .  A
C2561      H2568   1.083       .  S
C2562      C2563   1.420       .  A
C2563      C2564   1.399       .  A
C2563      C2570   1.518       .  S
C2564      C2565   1.406       .  A
C2564      H2569   1.082       .  S
C2565      C2566   1.423       .  A
C2566      C2567   1.517       .  S
C2567      F2571   1.384       .  S
C2567      F2572   1.380       .  S
C2567      F2573   1.382       .  S
C2570      F2574   1.382       .  S
C2570      F2575   1.383       .  S
C2570      F2576   1.384       .  S
C2577      C2578   1.416       .  A
C2577      C2582   1.408       .  A
C2577      H2584   1.082       .  S
C2578      C2579   1.424       .  A
C2579      C2580   1.409       .  A
C2579      C2586   1.522       .  S
C2580      C2581   1.412       .  A
C2581      C2582   1.419       .  A
C2582      C2583   1.516       .  S
C2583      F2587   1.385       .  S
C2583      F2588   1.382       .  S
C2583      F2589   1.376       .  S
C2586      F2590   1.382   1_565  S
C2586      F2591   1.383       .  S
C2593      C2594   1.401       .  A
C2593      C2598   1.410       .  A
C2593      H2600   1.085       .  S
C2594      C2595   1.414       .  A
C2595      C2596   1.396       .  A
C2595      C2602   1.523       .  S
C2596      C2597   1.408       .  A
C2596      H2601   1.082       .  S
C2597      C2598   1.431       .  A
C2599      F2603   1.383       .  S
C2599      F2604   1.375       .  S
C2599      F2605   1.384       .  S
C2602      F2606   1.380       .  S
C2602      F2607   1.383       .  S
C2602      F2608   1.385       .  S
C2609      C2610   1.418       .  A
C2609      C2614   1.406       .  A
C2609      H2616   1.076       .  S
C2610      C2611   1.425       .  A
C2611      C2612   1.400       .  A
C2612      C2613   1.403       .  A
C2613      C2614   1.415       .  A
C2614      C2615   1.522       .  S
C2615      F2619   1.383       .  S
C2615      F2620   1.379       .  S
C2615      F2621   1.384       .  S
C2618      F2623   1.384   1_545  S
C2618      F2624   1.384   1_545  S
C2625      C2626   1.406       .  A
C2625      C2630   1.404       .  A
C2625      H2632   1.081       .  S
C2626      C2627   1.429       .  A
C2627      C2628   1.410       .  A
C2627      C2634   1.520       .  S
C2628      C2629   1.404       .  A
C2629      C2630   1.426       .  A
C2630      C2631   1.525       .  S
C2631      F2635   1.385       .  S
C2631      F2636   1.384       .  S
C2631      F2637   1.381       .  S
C2634      F2639   1.382   1_655  S
C2641      C2642   1.405       .  A
C2641      C2646   1.403       .  A
C2641      H2648   1.076       .  S
C2642      C2643   1.423       .  A
C2643      C2644   1.411       .  A
C2643      C2650   1.517       .  S
C2644      C2645   1.404       .  A
C2644      H2649   1.083       .  S
C2645      C2646   1.416       .  A
C2646      C2647   1.523       .  S
C2647      F2651   1.383       .  S
C2647      F2652   1.384       .  S
C2647      F2653   1.380       .  S
C2650      F2654   1.383       .  S
C2650      F2655   1.380       .  S
C2650      F2656   1.385       .  S
C2657      C2658   1.406       .  A
C2657      C2662   1.403       .  A
C2657      H2664   1.082       .  S
C2658      C2659   1.428       .  A
C2659      C2660   1.412       .  A
C2659      C2666   1.521       .  S
C2660      C2661   1.403       .  A
C2660      H2665   1.085       .  S
C2661      C2662   1.417       .  A
C2662      C2663   1.523       .  S
C2663      F2667   1.385       .  S
C2663      F2668   1.384       .  S
C2663      F2669   1.381       .  S
C2666      F2672   1.384       .  S
C2673      C2674   1.409       .  A
C2673      C2678   1.408       .  A
C2673      H2680   1.083       .  S
C2674      C2675   1.425       .  A
C2675      C2676   1.410       .  A
C2675      C2682   1.519       .  S
C2676      C2677   1.401       .  A
C2676      H2681   1.085       .  S
C2677      C2678   1.415       .  A
C2679      F2683   1.385   1_455  S
C2679      F2684   1.382   1_455  S
C2679      F2685   1.382       .  S
C2682      F2686   1.382       .  S
C2682      F2687   1.383       .  S
C2682      F2688   1.383       .  S
C2689      C2690   1.410       .  A
C2689      C2694   1.408       .  A
C2689      H2696   1.084       .  S
C2690      C2691   1.417       .  A
C2691      C2692   1.396       .  A
C2691      C2698   1.526       .  S
C2692      C2693   1.413       .  A
C2692      H2697   1.074       .  S
C2693      C2694   1.427       .  A
C2694      C2695   1.519       .  S
C2695      F2699   1.384   1_554  S
C2695      F2700   1.374   1_554  S
C2695      F2701   1.382       .  S
C2698      F2702   1.383       .  S
C2698      F2703   1.381       .  S
C2698      F2704   1.386       .  S
C2705      C2706   1.401       .  A
C2705      C2710   1.412       .  A
C2705      H2712   1.085       .  S
C2706      C2707   1.413       .  A
C2707      C2708   1.396       .  A
C2707      C2714   1.525       .  S
C2708      C2709   1.412       .  A
C2708      H2713   1.082   1_554  S
C2709      C2710   1.433       .  A
C2710      C2711   1.518       .  S
C2711      F2715   1.384       .  S
C2711      F2716   1.374       .  S
C2711      F2717   1.383       .  S
C2714      F2718   1.384       .  S
C2714      F2719   1.381   1_554  S
C2714      F2720   1.386   1_554  S
C2721      C2722   1.406       .  A
C2721      C2726   1.398       .  A
C2721      H2728   1.081       .  S
C2722      C2723   1.425       .  A
C2723      C2724   1.407       .  A
C2724      C2725   1.405       .  A
C2724      H2729   1.083       .  S
C2725      C2726   1.416       .  A
C2726      C2727   1.512       .  S
C2727      F2731   1.379       .  S
C2727      F2732   1.381       .  S
C2727      F2733   1.382       .  S
C2730      F2734   1.382       .  S
C2730      F2735   1.382       .  S
C2730      F2736   1.385       .  S
C2737      C2738   1.401       .  A
C2737      C2742   1.405       .  A
C2737      H2744   1.082       .  S
C2738      C2739   1.427       .  A
C2739      C2740   1.402       .  A
C2740      C2741   1.405       .  A
C2740      H2745   1.083       .  S
C2741      C2742   1.427       .  A
C2742      C2743   1.510       .  S
C2743      F2747   1.386       .  S
C2743      F2748   1.378       .  S
C2743      F2749   1.381       .  S
C2746      F2750   1.376       .  S
C2746      F2751   1.382       .  S
C2746      F2752   1.385       .  S
C2753      C2754   1.406       .  A
C2753      C2758   1.406       .  A
C2753      H2760   1.080       .  S
C2754      C2755   1.418       .  A
C2755      C2756   1.412       .  A
C2755      C2762   1.518       .  S
C2756      C2757   1.405       .  A
C2756      H2761   1.083       .  S
C2757      C2758   1.412       .  A
C2758      C2759   1.518       .  S
C2759      F2763   1.385       .  S
C2759      F2764   1.382       .  S
C2759      F2765   1.384       .  S
C2762      F2767   1.382       .  S
C2762      F2768   1.385       .  S
C2769      C2770   1.405       .  A
C2769      C2774   1.415       .  A
C2769      H2776   1.083       .  S
C2770      C2771   1.414       .  A
C2771      C2772   1.402       .  A
C2771      C2778   1.511       .  S
C2772      C2773   1.399       .  A
C2772      H2777   1.083       .  S
C2773      C2774   1.419       .  A
C2774      C2775   1.517       .  S
C2775      F2779   1.384       .  S
C2775      F2780   1.382       .  S
C2775      F2781   1.383       .  S
C2778      F2782   1.382       .  S
C2778      F2783   1.383       .  S
C2778      F2784   1.384       .  S
C2785      C2786   1.407       .  A
C2785      C2790   1.401       .  A
C2785      H2792   1.081       .  S
C2786      C2787   1.431       .  A
C2787      C2788   1.409       .  A
C2787      C2794   1.524       .  S
C2788      C2789   1.406       .  A
C2788      H2793   1.085   1_556  S
C2789      C2790   1.425       .  A
C2790      C2791   1.518       .  S
C2791      F2795   1.383       .  S
C2791      F2796   1.370       .  S
C2791      F2797   1.384       .  S
C2794      F2798   1.382       .  S
C2794      F2799   1.383       .  S
C2794      F2800   1.385   1_556  S
C2801      C2802   1.408       .  A
C2801      C2806   1.400       .  A
C2801      H2808   1.081       .  S
C2802      C2803   1.419       .  A
C2803      C2804   1.402       .  A
C2803      C2810   1.516       .  S
C2804      C2805   1.409       .  A
C2804      H2809   1.082       .  S
C2805      C2806   1.421       .  A
C2807      F2811   1.382       .  S
C2807      F2813   1.385       .  S
C2810      F2814   1.382       .  S
C2810      F2815   1.383       .  S
C2810      F2816   1.383       .  S
C2817      C2818   1.402       .  A
C2817      C2822   1.405       .  A
C2817      H2824   1.082       .  S
C2818      C2819   1.421       .  A
C2819      C2820   1.408       .  A
C2819      C2826   1.520       .  S
C2820      C2821   1.407       .  A
C2820      H2825   1.081       .  S
C2821      C2822   1.430       .  A
C2822      C2823   1.525       .  S
C2823      F2827   1.385       .  S
C2823      F2828   1.383       .  S
C2823      F2829   1.384       .  S
C2826      F2830   1.383   1_565  S
C2826      F2831   1.382       .  S
C2833      C2834   1.406       .  A
C2833      C2838   1.413       .  A
C2833      H2840   1.084       .  S
C2834      C2835   1.416       .  A
C2835      C2836   1.393   1_554  A
C2835      C2842   1.515   1_554  S
C2836      C2837   1.402   1_556  A
C2836      H2841   1.083       .  S
C2837      C2838   1.422       .  A
C2838      C2839   1.516       .  S
C2839      F2843   1.384       .  S
C2839      F2844   1.380       .  S
C2839      F2845   1.383       .  S
C2842      F2846   1.383   1_556  S
C2842      F2847   1.378       .  S
C2842      F2848   1.385       .  S
C2849      C2850   1.398       .  A
C2849      C2854   1.391       .  A
C2849      H2856   1.079       .  S
C2850      C2851   1.417       .  A
C2851      C2852   1.416       .  A
C2851      C2858   1.517       .  S
C2852      C2853   1.413       .  A
C2852      H2857   1.082       .  S
C2853      C2854   1.417       .  A
C2854      C2855   1.520   1_554  S
C2855      F2859   1.382       .  S
C2855      F2860   1.382       .  S
C2855      F2861   1.380       .  S
C2858      F2862   1.381       .  S
C2858      F2863   1.383       .  S
C2858      F2864   1.385       .  S
C2865      C2866   1.399       .  A
C2865      C2870   1.405       .  A
C2865      H2872   1.083       .  S
C2866      C2867   1.420       .  A
C2867      C2868   1.410       .  A
C2867      C2874   1.520       .  S
C2868      C2869   1.404       .  A
C2868      H2873   1.083       .  S
C2869      C2870   1.424       .  A
C2870      C2871   1.520       .  S
C2871      F2875   1.385       .  S
C2871      F2876   1.382       .  S
C2871      F2877   1.377       .  S
C2874      F2878   1.383       .  S
C2874      F2879   1.381       .  S
C2874      F2880   1.385       .  S
C2881      C2882   1.400       .  A
C2881      C2886   1.405       .  A
C2881      H2888   1.085       .  S
C2882      C2883   1.417       .  A
C2883      C2884   1.403       .  A
C2883      C2890   1.523   1_556  S
C2884      C2885   1.409       .  A
C2884      H2889   1.083   1_556  S
C2885      C2886   1.427       .  A
C2886      C2887   1.514       .  S
C2887      F2891   1.385       .  S
C2887      F2892   1.373       .  S
C2887      F2893   1.381       .  S
C2890      F2894   1.384   1_554  S
C2890      F2895   1.382       .  S
C2890      F2896   1.385       .  S
C2897      C2898   1.411       .  A
C2897      C2902   1.403       .  A
C2897      H2904   1.084       .  S
C2898      C2899   1.426       .  A
C2899      C2900   1.405       .  A
C2900      C2901   1.409       .  A
C2901      C2902   1.423       .  A
C2902      C2903   1.519       .  S
C2903      F2907   1.385       .  S
C2903      F2908   1.375   1_556  S
C2903      F2909   1.383       .  S
C2906      F2910   1.382       .  S
C2906      F2912   1.385       .  S
C2913      C2914   1.398       .  A
C2913      C2918   1.394       .  A
C2913      H2920   1.086       .  S
C2914      C2915   1.409       .  A
C2915      C2916   1.409       .  A
C2915      C2922   1.515       .  S
C2916      C2917   1.415       .  A
C2916      H2921   1.081       .  S
C2917      C2918   1.425       .  A
C2918      C2919   1.521   1_556  S
C2919      F2923   1.384       .  S
C2919      F2924   1.372       .  S
C2919      F2925   1.383       .  S
C2922      F2926   1.383       .  S
C2922      F2927   1.382       .  S
C2922      F2928   1.384       .  S
C2929      C2930   1.402       .  A
C2929      C2934   1.396       .  A
C2929      H2936   1.085       .  S
C2930      C2931   1.413       .  A
C2931      C2932   1.409       .  A
C2931      C2938   1.517       .  S
C2932      C2933   1.412       .  A
C2932      H2937   1.081       .  S
C2933      C2934   1.417       .  A
C2934      C2935   1.519   1_556  S
C2935      F2939   1.382       .  S
C2935      F2940   1.382       .  S
C2935      F2941   1.385       .  S
C2938      F2942   1.381       .  S
C2938      F2943   1.383       .  S
C2938      F2944   1.384       .  S
C2945      C2946   1.400       .  A
C2945      C2950   1.403       .  A
C2945      H2952   1.083       .  S
C2946      C2947   1.419       .  A
C2947      C2948   1.409       .  A
C2947      C2954   1.519       .  S
C2948      C2949   1.408       .  A
C2949      C2950   1.427       .  A
C2950      C2951   1.524       .  S
C2951      F2955   1.385       .  S
C2951      F2957   1.381       .  S
C2954      F2958   1.383       .  S
C2954      F2959   1.382   1_655  S
