geometry optimzed in LAMMPS
_audit_creation_date              2020-11-30 
_audit_creation_method            'lammps2cif' 
_symmetry_space_group_name_H-M    'P1' 
_symmetry_Int_Tables_number       1 
_symmetry_cell_setting            triclinic 
loop_ 
_symmetry_equiv_pos_as_xyz 
  x,y,z 
_cell_length_a                    43.07609505 
_cell_length_b                    43.2515783140568 
_cell_length_c                    33.69312203776419 
_cell_angle_alpha                 90.08781716538066 
_cell_angle_beta                  89.78062308030313 
_cell_angle_gamma                 120.65482248475553 
loop_ 
_atom_site_label 
_atom_site_type_symbol 
_atom_site_fract_x 
_atom_site_fract_y 
_atom_site_fract_z 
_atom_site_charge 
C1          C  0.33472741  0.66674031  0.21551195     0.46400
H2          H  0.33527521  0.66644610  0.18261359    -0.02700
C3          C  0.33447282  0.66774168  0.29246021     0.46400
H4          H  0.33430977  0.66782473  0.32528627    -0.02700
C5          C  0.35432338  0.70565132  0.23271512    -0.16400
C6          C  0.29572037  0.64788299  0.23320315    -0.16100
C7          C  0.35357477  0.64750049  0.23424530    -0.16500
C8          C  0.35427383  0.70629635  0.27396849    -0.16500
C9          C  0.29567776  0.64805180  0.27450177    -0.16000
C10         C  0.35375174  0.64838609  0.27540463    -0.16300
N11         N  0.10367001  0.30962268  0.74539965    -0.35700
N12         N  0.15119700  0.29947422  0.69399150    -0.56300
N13         N  0.19649517  0.30244416  0.76015118    -0.35700
N14         N  0.14754505  0.31071041  0.81169145    -0.56300
C15         C  0.09664858  0.31922302  0.70983332     0.27900
C16         C  0.09584275  0.32704420  0.77347311     0.27900
C17         C  0.21979279  0.31338794  0.72914417     0.27900
C18         C  0.21662842  0.31695542  0.79316751     0.27900
C19         C  0.12691173  0.29615942  0.66668694     0.36500
C20         C  0.17529999  0.29394319  0.67458880     0.36500
C21         C  0.12144508  0.31268727  0.83157284     0.36500
C22         C  0.16793593  0.30706272  0.83941706     0.36500
C23         C  0.08296363  0.34182192  0.71553309    -0.21000
C24         C  0.08265813  0.34691779  0.75553156    -0.21000
C25         C  0.25493493  0.33405622  0.74284754    -0.21000
C26         C  0.25293905  0.33621801  0.78309735    -0.21000
C27         C  0.13444988  0.28661368  0.63021829    -0.22000
C28         C  0.16524597  0.28521154  0.63524112    -0.22000
C29         C  0.12408787  0.30839645  0.87195342    -0.22000
C30         C  0.15365571  0.30477165  0.87693837    -0.22000
C31         C  0.10364879  0.30950909  0.67224820    -0.17400
C32         C  0.10095772  0.32617022  0.81476271    -0.17400
C33         C  0.20320778  0.31478911  0.83197761    -0.17400
C34         C  0.21032806  0.30658744  0.68866640    -0.17400
H35         H  0.07544525  0.35478757  0.69328621     0.15500
H36         H  0.07481590  0.36449349  0.76936083     0.15500
H37         H  0.27965640  0.34762324  0.72577670     0.15500
H38         H  0.27578527  0.35181998  0.80231898     0.15500
H39         H  0.12105491  0.28410674  0.60226222     0.13800
H40         H  0.18044999  0.28165647  0.61184890     0.13800
H41         H  0.10811365  0.31052591  0.89550509     0.13800
H42         H  0.16514876  0.30374549  0.90507462     0.13800
H43         H  0.11182641  0.29106635  0.75032417     0.27100
H44         H  0.16862548  0.28523917  0.75899652     0.27100
N45         N  0.09812793  0.79862588  0.76377241    -0.35700
N46         N  0.15031876  0.84094888  0.70242940    -0.56300
N47         N  0.19472029  0.89846204  0.75724984    -0.35700
N48         N  0.14145992  0.85683862  0.81790212    -0.56300
C49         C  0.09304317  0.77353647  0.73647310     0.27900
C50         C  0.08901133  0.78189921  0.79940905     0.27900
C51         C  0.21830875  0.90400046  0.72763045     0.27900
C52         C  0.21429538  0.91135166  0.79086915     0.27900
C53         C  0.12513937  0.81386732  0.68017583     0.36500
C54         C  0.17460494  0.86511472  0.67670883     0.36500
C55         C  0.11373363  0.83566791  0.84219196     0.36500
C56         C  0.16367570  0.88640450  0.83902558     0.36500
C57         C  0.07989449  0.74045786  0.75477675    -0.21000
C58         C  0.07732285  0.74570115  0.79444369    -0.21000
C59         C  0.25321354  0.92160878  0.74235047    -0.21000
C60         C  0.25070418  0.92620854  0.78214034    -0.21000
C61         C  0.13254025  0.82155456  0.64015765    -0.22000
C62         C  0.16403007  0.85414235  0.63795666    -0.22000
C63         C  0.11715497  0.85277043  0.87809614    -0.22000
C64         C  0.14900418  0.88499536  0.87613574    -0.22000
C65         C  0.10059440  0.77976693  0.69556118    -0.17400
C66         C  0.09202861  0.79851170  0.83647891    -0.17400
C67         C  0.20025699  0.90880938  0.82948084    -0.17400
C68         C  0.20918356  0.89256333  0.68791000    -0.17400
H69         H  0.07395606  0.71531271  0.74127807     0.15500
H70         H  0.06890540  0.72523275  0.81708386     0.15500
H71         H  0.27798723  0.92900866  0.72662805     0.15500
H72         H  0.27328973  0.93798161  0.80235922     0.15500
H73         H  0.11817853  0.80430650  0.61530617     0.13800
H74         H  0.17877991  0.86706643  0.61106963     0.13800
H75         H  0.10041483  0.84160650  0.90426694     0.13800
H76         H  0.16164581  0.90361273  0.90048075     0.13800
H77         H  0.10584148  0.82547717  0.75803569     0.27100
H78         H  0.16689311  0.88760755  0.75432959     0.27100
N79         N  0.81799330  0.71467824  0.23940163    -0.35700
N80         N  0.86675839  0.72955594  0.17378538    -0.56300
N81         N  0.90785926  0.71680024  0.23405311    -0.35700
N82         N  0.86241254  0.70865392  0.30063977    -0.56300
C83         C  0.80752981  0.72921060  0.21090069     0.27900
C84         C  0.80450396  0.71823859  0.27407784     0.27900
C85         C  0.92922363  0.72893024  0.20169862     0.27900
C86         C  0.92881530  0.71978172  0.26519446     0.27900
C87         C  0.83716146  0.72258633  0.15293010     0.36500
C88         C  0.88688618  0.72178834  0.14961208     0.36500
C89         C  0.82931305  0.69105916  0.31743709     0.36500
C90         C  0.88043244  0.69308156  0.31481369     0.36500
C91         C  0.78883180  0.74411402  0.22795338    -0.21000
C92         C  0.78633225  0.73657284  0.26801474    -0.21000
C93         C  0.96465403  0.74124686  0.21265895    -0.21000
C94         C  0.96441685  0.73551652  0.25294156    -0.21000
C95         C  0.84060590  0.71445370  0.11391359    -0.22000
C96         C  0.87234897  0.71412865  0.11179901    -0.22000
C97         C  0.82660195  0.66478592  0.34318728    -0.22000
C98         C  0.85911032  0.66621800  0.34168208    -0.22000
C99         C  0.80597032  0.71961282  0.17076306    -0.17400
C100        C  0.80159276  0.69795902  0.30787667    -0.17400
C101        C  0.91484116  0.70141461  0.30126805    -0.17400
C102        C  0.91547795  0.71760997  0.16328556    -0.17400
H103        H  0.77573487  0.75633193  0.21262036     0.15500
H104        H  0.77086072  0.74167485  0.28967850     0.15500
H105        H  0.98761271  0.75018601  0.19301398     0.15500
H106        H  0.98719247  0.73957458  0.27049025     0.15500
H107        H  0.82189349  0.70835453  0.08975000     0.13800
H108        H  0.88276111  0.70761957  0.08582792     0.13800
H109        H  0.80332671  0.64510976  0.35970968     0.13800
H110        H  0.86512448  0.64781836  0.35669167     0.13800
H111        H  0.82694832  0.69672106  0.23433754     0.27100
H112        H  0.87992806  0.70025914  0.23309759     0.27100
O113        O  0.04819127  0.57944811  0.96907485    -0.77600
C114        C  0.08312308  0.54900090  0.07477900     0.83500
O115        O  0.00186938  0.45383867  0.94866435    -0.78700
O116        O  0.98234541  0.44801446  0.08732690    -0.80200
O117        O  0.94379578  0.53247904  0.04772110    -0.80000
O118        O  0.99110933  0.56755545  0.96897964    -0.78600
Zn119      Zn  0.04485379  0.53415800  0.99283688     1.55700
O120        O  0.97093170  0.52301383  0.09902116    -0.80000
Cd121      Cd  0.96078342  0.51995252  0.99720866     1.59700
Cd122      Cd  0.96762955  0.45538072  0.98770359     1.59600
O123        O  0.91511003  0.48734046  0.96165003    -0.80000
O124        O  0.99464540  0.50356373  0.01255268    -1.90500
Cd125      Cd  0.99917321  0.50123196  0.07198355     1.59900
O126        O  0.92014479  0.43938207  0.95436822    -0.80000
O127        O  0.05268054  0.53233734  0.09258914    -0.78600
C128        C  0.03451254  0.47367461  0.93807764     0.83900
C129        C  0.02456334  0.58828542  0.96193053     0.83600
O130        O  0.08456489  0.55079306  0.03684432    -0.77600
C131        C  0.95117311  0.53433276  0.08443811     0.84400
O132        O  0.05491313  0.50528263  0.95185235    -0.77700
C133        C  0.90362856  0.45618232  0.94698439     0.84500
C134        C  0.96913601  0.41954693  0.06611381     0.84900
O135        O  0.96083360  0.41882639  0.02976424    -0.80100
O136        O  0.08125588  0.53926269  0.46578692    -0.77600
C137        C  0.02893330  0.56732061  0.55900071     0.83500
O138        O  0.99507719  0.42962701  0.54006195    -0.78700
O139        O  0.91727943  0.47811205  0.54704512    -0.80200
O140        O  0.97445000  0.52341611  0.41034356    -0.80000
O141        O  0.04965503  0.51944259  0.41020791    -0.78600
Zn142      Zn  0.04241164  0.51571548  0.51010129     1.55700
O143        O  0.95344779  0.53544856  0.46575602    -0.80000
Cd144      Cd  0.99579058  0.49241317  0.43071849     1.59700
Cd145      Cd  0.96165965  0.44037693  0.50942824     1.59600
O146        O  0.97240664  0.43972056  0.40837417    -0.80000
O147        O  0.99208737  0.49071551  0.49050283    -1.90500
Cd148      Cd  0.96340630  0.51128824  0.51199051     1.59900
O149        O  0.94770027  0.40599697  0.46257473    -0.80000
O150        O  0.99617912  0.55242791  0.54833790    -0.78600
C151        C  0.02879905  0.44533436  0.54643671     0.83900
C152        C  0.07993712  0.53719525  0.42795411     0.83600
O153        O  0.04986027  0.55612340  0.54770579    -0.77600
C154        C  0.96057557  0.53943032  0.42870739     0.84400
O155        O  0.05057223  0.47809149  0.53695790    -0.77700
C156        C  0.95576029  0.40919210  0.42584230     0.84500
C157        C  0.90336369  0.44545414  0.55806345     0.84900
O158        O  0.91648270  0.42655470  0.54582867    -0.80100
N159        N  0.81965953  0.10022715  0.23389749    -0.35700
N160        N  0.86537141  0.14243584  0.29981066    -0.56300
N161        N  0.91239032  0.18546553  0.23573736    -0.35700
N162        N  0.86737310  0.14258273  0.16908248    -0.56300
C163        C  0.80331257  0.07958091  0.26593837     0.27900
C164        C  0.80470798  0.07964925  0.20149907     0.27900
C165        C  0.93347671  0.19826218  0.26814743     0.27900
C166        C  0.93416289  0.19711805  0.20364406     0.27900
C167        C  0.83226611  0.12637521  0.31686037     0.36500
C168        C  0.88526260  0.17462495  0.31799518     0.36500
C169        C  0.83458665  0.12729952  0.15180412     0.36500
C170        C  0.88732768  0.17556615  0.15276799     0.36500
C171        C  0.77929356  0.04466045  0.25396078    -0.21000
C172        C  0.78008883  0.04472851  0.21307816    -0.21000
C173        C  0.96943149  0.21669759  0.25675435    -0.21000
C174        C  0.96988823  0.21573793  0.21582890    -0.21000
C175        C  0.83162843  0.14772284  0.34717613    -0.22000
C176        C  0.86504732  0.17820203  0.34789033    -0.22000
C177        C  0.83402683  0.15017199  0.12340255    -0.22000
C178        C  0.86746867  0.18077582  0.12397784    -0.22000
C179        C  0.80219236  0.09420278  0.30286344    -0.17400
C180        C  0.80474985  0.09435836  0.16432196    -0.17400
C181        C  0.92195047  0.20148574  0.16655506    -0.17400
C182        C  0.92013182  0.20149173  0.30515865    -0.17400
H183        H  0.76037449  0.02258914  0.27253749     0.15500
H184        H  0.76183047  0.02275371  0.19406725     0.15500
H185        H  0.99256361  0.23213502  0.27569848     0.15500
H186        H  0.99343953  0.23070032  0.19712907     0.15500
H187        H  0.80906606  0.14342558  0.36535809     0.13800
H188        H  0.87201781  0.20099391  0.36675001     0.13800
H189        H  0.81146394  0.14654521  0.10584147     0.13800
H190        H  0.87494636  0.20466548  0.10682959     0.13800
H191        H  0.83305163  0.12814185  0.23393531     0.27100
H192        H  0.88513753  0.17740005  0.23527371     0.27100
N193        N  0.28521388  0.09875893  0.24249233    -0.35700
N194        N  0.28413447  0.14659317  0.30017284    -0.56300
N195        N  0.27800653  0.18504637  0.23343573    -0.35700
N196        N  0.27218069  0.13330389  0.17559458    -0.56300
C197        C  0.28275669  0.08148698  0.27671601     0.27900
C198        C  0.27490739  0.07449927  0.21291498     0.27900
C199        C  0.27166039  0.20106823  0.26423335     0.27900
C200        C  0.26854519  0.19538125  0.20003396     0.27900
C201        C  0.29500223  0.12905536  0.32447363     0.36500
C202        C  0.28904553  0.17590564  0.32009690     0.36500
C203        C  0.27911986  0.11066190  0.15510367     0.36500
C204        C  0.27707173  0.15936297  0.14990867     0.36500
C205        C  0.26945934  0.04538219  0.26902247    -0.21000
C206        C  0.26452406  0.04098736  0.22858655    -0.21000
C207        C  0.25697141  0.22101899  0.25038754    -0.21000
C208        C  0.25496387  0.21738252  0.20975342    -0.21000
C209        C  0.30306202  0.14513741  0.36148387    -0.22000
C210        C  0.30015681  0.17521212  0.35853218    -0.22000
C211        C  0.28416364  0.11990436  0.11526997    -0.22000
C212        C  0.28260324  0.15075850  0.11191544    -0.22000
C213        C  0.29827688  0.09931332  0.31268111    -0.17400
C214        C  0.28464941  0.08439567  0.17313035    -0.17400
C215        C  0.27983298  0.19203334  0.16180604    -0.17400
C216        C  0.28529674  0.20374646  0.30288769    -0.17400
H217        H  0.26516222  0.02466284  0.29003247     0.15500
H218        H  0.25648946  0.01647222  0.21227649     0.15500
H219        H  0.25050234  0.23814163  0.26764001     0.15500
H220        H  0.24646867  0.23102436  0.18949047     0.15500
H221        H  0.30973486  0.13604692  0.38824230     0.13800
H222        H  0.30541157  0.19376150  0.38252987     0.13800
H223        H  0.28961438  0.10652047  0.09142530     0.13800
H224        H  0.28613326  0.16560549  0.08480979     0.13800
H225        H  0.30019424  0.12647357  0.23859273     0.27100
H226        H  0.29458322  0.17411513  0.23426555     0.27100
N227        N  0.69583612  0.80189373  0.75802670    -0.35700
N228        N  0.68826730  0.85194345  0.80841554    -0.56300
N229        N  0.68750600  0.89333943  0.74089719    -0.35700
N230        N  0.69667354  0.84467762  0.69054043    -0.56300
C231        C  0.68285739  0.78310975  0.79220584     0.27900
C232        C  0.68399581  0.77758182  0.72811321     0.27900
C233        C  0.66922533  0.90056159  0.76863811     0.27900
C234        C  0.67712925  0.89901524  0.70507596     0.27900
C235        C  0.69349435  0.83303699  0.83662408     0.36500
C236        C  0.68566170  0.87790003  0.82752729     0.36500
C237        C  0.70224882  0.82033425  0.67196690     0.36500
C238        C  0.70051518  0.86877200  0.66271374     0.36500
C239        C  0.66361649  0.74659328  0.78399721    -0.21000
C240        C  0.66408540  0.74310797  0.74371613    -0.21000
C241        C  0.64777007  0.91159985  0.75009132    -0.21000
C242        C  0.65301661  0.91096685  0.71024103    -0.21000
C243        C  0.69634082  0.84830068  0.87363547    -0.22000
C244        C  0.69115278  0.87674282  0.86786109    -0.22000
C245        C  0.71146829  0.82998944  0.63255201    -0.22000
C246        C  0.71041168  0.86084971  0.62668632    -0.22000
C247        C  0.68630426  0.79790279  0.83048682    -0.17400
C248        C  0.68962106  0.78566222  0.68710709    -0.17400
C249        C  0.68749943  0.89237838  0.66766615    -0.17400
C250        C  0.67068039  0.89679518  0.81016391    -0.17400
H251        H  0.64908583  0.72456487  0.80455542     0.15500
H252        H  0.64996240  0.71780928  0.72807738     0.15500
H253        H  0.62889313  0.91807254  0.76330527     0.15500
H254        H  0.63898369  0.91691876  0.68776031     0.15500
H255        H  0.69854121  0.83800259  0.90209682     0.13800
H256        H  0.68886866  0.89292198  0.89093571     0.13800
H257        H  0.71537983  0.81464461  0.60972226     0.13800
H258        H  0.71350423  0.87412878  0.59850886     0.13800
H259        H  0.71277484  0.82965216  0.75546611     0.27100
H260        H  0.70712651  0.88651266  0.74604589     0.27100
O261        O  0.43818037  0.94846062  0.54580461    -0.77600
C262        C  0.46187837  0.92091165  0.42787627     0.83500
O263        O  0.56719078  0.00659298  0.54562185    -0.78700
O264        O  0.55824014  0.02910251  0.40996556    -0.80200
O265        O  0.46592306  0.05266796  0.46245717    -0.80000
O266        O  0.43835091  0.00026138  0.54187532    -0.78600
Zn267      Zn  0.48144085  0.95759700  0.51094239     1.55700
O268        O  0.47657530  0.02820459  0.40927246    -0.80000
Cd269      Cd  0.48311385  0.03576877  0.51065155     1.59700
Cd270      Cd  0.55565447  0.03836213  0.51161262     1.59600
O271        O  0.51432574  0.07982689  0.54901765    -0.80000
O272        O  0.50548274  0.00782555  0.49121246    -1.90500
Cd273      Cd  0.50493196  0.00469114  0.43135040     1.59900
O274        O  0.56804379  0.08495491  0.54429077    -0.80000
O275        O  0.47749229  0.95132493  0.41026362    -0.78600
C276        C  0.55173115  0.97286852  0.55150600     0.83900
C277        C  0.42433672  0.96788759  0.55361761     0.83600
O278        O  0.46125718  0.91921717  0.46579465    -0.77600
C279        C  0.46350894  0.04592001  0.42535334     0.84400
O280        O  0.51935568  0.95101559  0.54042291    -0.77700
C281        C  0.54779586  0.09612934  0.55784693     0.84500
C282        C  0.58848928  0.04553277  0.42808465     0.84900
O283        O  0.59078296  0.05180895  0.46519662    -0.80100
O284        O  0.45526804  0.53789792  0.46692926    -0.77600
C285        C  0.42477758  0.45075811  0.55777599     0.83500
O286        O  0.55907156  0.55628101  0.54816350    -0.78700
O287        O  0.51418185  0.42832484  0.53806947    -0.80200
O288        O  0.46666529  0.44634095  0.40876824    -0.80000
O289        O  0.47784942  0.52943599  0.41138059    -0.78600
Zn290      Zn  0.47517469  0.51863450  0.51117353     1.55700
O291        O  0.45379795  0.41199419  0.46306479    -0.80000
Cd292      Cd  0.50055638  0.49849507  0.43113218     1.59700
Cd293      Cd  0.54990954  0.51482366  0.51326144     1.59400
O294        O  0.55432479  0.52443383  0.41132467    -0.80000
O295        O  0.50102506  0.49495628  0.49080853    -1.90500
Cd296      Cd  0.48118934  0.44457179  0.50912963     1.59900
O297        O  0.58572039  0.53563295  0.46779446    -0.80000
O298        O  0.44218973  0.43528482  0.54876070    -0.78600
C299        C  0.54194024  0.57182145  0.55793380     0.83900
C300        C  0.45987723  0.54146131  0.42928444     0.83600
O301        O  0.43325377  0.48184948  0.54482347    -0.77600
C302        C  0.44935964  0.41597420  0.42653079     0.84400
O303        O  0.50996796  0.56127445  0.54587801    -0.77700
C304        C  0.58415407  0.53827338  0.43034320     0.84500
C305        C  0.54455041  0.44833322  0.55471644     0.84900
O306        O  0.56132416  0.48218233  0.54914558    -0.80100
O307        O  0.44565383  0.91558377  0.03666861    -0.77600
C308        C  0.41113651  0.97779141  0.96069137     0.83500
O309        O  0.54187060  0.99232236  0.94236414    -0.78700
O310        O  0.51263167  0.08589957  0.96417408    -0.80200
O311        O  0.47483556  0.02310636  0.09780990    -0.80000
O312        O  0.47770219  0.94701803  0.08868640    -0.78600
Zn313      Zn  0.46288121  0.95426949  0.99143982     1.55700
O314        O  0.46669542  0.05377165  0.04959153    -0.80000
Cd315      Cd  0.50136365  0.00061548  0.06793830     1.59700
Cd316      Cd  0.54235561  0.02884326  0.97986759     1.59600
O317        O  0.55643695  0.02717497  0.07977165    -0.80000
O318        O  0.49584170  0.00424759  0.00920341    -1.90500
Cd319      Cd  0.47966952  0.03913262  0.99770548     1.59900
O320        O  0.58294572  0.04249672  0.01981415    -0.80000
O321        O  0.43229327  0.01091148  0.96827707    -0.78600
C322        C  0.52032852  0.95963309  0.93344502     0.83900
C323        C  0.45514562  0.91689318  0.07288297     0.83600
O324        O  0.41887181  0.95353427  0.96832573    -0.77600
C325        C  0.46364500  0.04363713  0.08548539     0.84400
O326        O  0.48909055  0.94103456  0.94931914    -0.77700
C327        C  0.58439029  0.04050935  0.05739742     0.84500
C328        C  0.54059983  0.09390820  0.94360677     0.84900
O329        O  0.55457409  0.07409384  0.94492736    -0.80100
O330        O  0.43470283  0.49065198  0.96252100    -0.77600
C331        C  0.46002761  0.54240283  0.07722279     0.83500
O332        O  0.56701108  0.56417511  0.96360219    -0.78700
O333        O  0.55307381  0.52841844  0.09470024    -0.80200
O334        O  0.46434806  0.41399365  0.03750693    -0.80000
O335        O  0.43593879  0.43954367  0.96395356    -0.78600
Zn336      Zn  0.48000150  0.52578042  0.99396885     1.55700
O337        O  0.47042018  0.44642412  0.09199541    -0.80000
Cd338      Cd  0.48158236  0.44963963  0.99130824     1.59700
Cd339      Cd  0.55338673  0.51827833  0.99341170     1.59600
O340        O  0.51108006  0.43784093  0.94989101    -0.80000
O341        O  0.50314031  0.49918660  0.01284578    -1.90500
Cd342      Cd  0.50013796  0.49969256  0.07266381     1.59900
O343        O  0.56519983  0.48616693  0.95611705    -0.80000
O344        O  0.47226735  0.52469362  0.09477952    -0.78600
C345        C  0.55105247  0.58108904  0.95449395     0.83900
C346        C  0.42070932  0.45712079  0.95503766     0.83600
O347        O  0.46228455  0.54590516  0.03945499    -0.77600
C348        C  0.45888582  0.41638401  0.07424246     0.84400
O349        O  0.51778246  0.56922098  0.96244652    -0.77700
C350        C  0.54449011  0.45537975  0.94077578     0.84500
C351        C  0.58361393  0.53927936  0.07786866     0.84900
O352        O  0.58673128  0.53445864  0.04114699    -0.80100
C353        C  0.66434899  0.33231247  0.71386872     0.46400
H354        H  0.66467428  0.33098953  0.68093645    -0.02700
C355        C  0.66374048  0.33603340  0.79083636     0.46400
H356        H  0.66348585  0.33734478  0.82376588    -0.02700
C357        C  0.64440343  0.29498548  0.73365448    -0.16400
C358        C  0.70270518  0.35168999  0.73233548    -0.16100
C359        C  0.64521935  0.35227077  0.72984643    -0.16500
C360        C  0.64345659  0.29681491  0.77454384    -0.16500
C361        C  0.70241796  0.35389929  0.77320387    -0.16000
C362        C  0.64564709  0.35484822  0.77065517    -0.16300
C363        C  0.59288546  0.38512356  0.82077040     0.30700
C364        C  0.56143011  0.38567414  0.83183760    -0.35700
C365        C  0.56470799  0.40821058  0.86405906     0.16700
C366        C  0.59689975  0.42925803  0.88355333     0.22500
C367        C  0.62807497  0.42828145  0.87290029    -0.33800
C368        C  0.62466086  0.40539365  0.84125403     0.16600
O369        O  0.59593680  0.36552995  0.79218125    -0.25800
C370        C  0.63012072  0.37312508  0.79465933     0.06400
C371        C  0.64898269  0.39755505  0.82491511    -0.30700
O372        O  0.59424838  0.44872394  0.91241937    -0.22500
C373        C  0.55965558  0.43980194  0.91219605    -0.02500
C374        C  0.53998961  0.41450354  0.88270495    -0.16900
H375        H  0.53605166  0.36938525  0.81664969     0.21000
H376        H  0.65330316  0.44410429  0.88851450     0.19400
H377        H  0.67664115  0.40774501  0.83386701     0.19400
H378        H  0.51164881  0.40270738  0.87580737     0.15200
C379        C  0.56975669  0.17595011  0.89167598     0.30700
C380        C  0.57272546  0.20930021  0.88270637    -0.35700
C381        C  0.59480725  0.22838822  0.84992443     0.16700
C382        C  0.61221278  0.21524524  0.82714985     0.22500
C383        C  0.60967036  0.18232854  0.83646870    -0.33800
C384        C  0.58814630  0.16357983  0.86946452     0.16600
O385        O  0.55043201  0.15335518  0.92067277    -0.25800
C386        C  0.55695146  0.12632894  0.91729732     0.06400
C387        C  0.58037109  0.13154646  0.88595847    -0.30700
O388        O  0.63089566  0.23691813  0.79745428    -0.22500
C389        C  0.62595984  0.26478404  0.80131323    -0.02500
C390        C  0.60391597  0.26103589  0.83366696    -0.16900
H391        H  0.55884183  0.21967232  0.90007247     0.21000
H392        H  0.62360464  0.17200414  0.81912849     0.19400
H393        H  0.58987102  0.11391415  0.87630822     0.19400
H394        H  0.59563039  0.27959219  0.84350924     0.15200
C395        C  0.56948442  0.39566314  0.61293458     0.30700
C396        C  0.56961750  0.36460949  0.62573494    -0.35700
C397        C  0.59364719  0.36930569  0.65677856     0.16700
C398        C  0.61526815  0.40207568  0.67485810     0.22500
C399        C  0.61526400  0.43303551  0.66195015    -0.33800
C400        C  0.59207330  0.42854955  0.63024026     0.16600
O401        O  0.54968962  0.39776763  0.58399050    -0.25800
C402        C  0.56023489  0.43268524  0.58222272     0.06400
C403        C  0.58664345  0.45291823  0.61034521    -0.30700
O404        O  0.63568622  0.40052880  0.70325127    -0.22500
C405        C  0.62762645  0.36638105  0.70306749    -0.02500
C406        C  0.60174480  0.34578882  0.67460840    -0.16900
H407        H  0.55261503  0.33868426  0.61201004     0.21000
H408        H  0.63266059  0.45905182  0.67529426     0.19400
H409        H  0.59960974  0.48152235  0.61577023     0.19400
H410        H  0.59055222  0.31755117  0.66809788     0.15200
C411        C  0.56705564  0.16458979  0.62913351     0.30700
C412        C  0.55946902  0.18243075  0.65952927    -0.35700
C413        C  0.58937076  0.21267766  0.67697617     0.16700
C414        C  0.62431720  0.22501725  0.66466076     0.22500
C415        C  0.63192722  0.20697406  0.63465570    -0.33800
C416        C  0.60212758  0.17637591  0.61779455     0.16600
O417        O  0.54329523  0.13554712  0.60917038    -0.25800
C418        C  0.56334707  0.12817966  0.58490117     0.06400
C419        C  0.60020748  0.15282403  0.58921007    -0.30700
O420        O  0.64806557  0.25472103  0.68346591    -0.22500
C421        C  0.62839469  0.26128588  0.70911462    -0.02500
C422        C  0.59159583  0.23589494  0.70631790    -0.16900
H423        H  0.53209631  0.17329651  0.66900903     0.21000
H424        H  0.65929405  0.21620967  0.62505603     0.19400
H425        H  0.62242481  0.15320673  0.57363825     0.19400
H426        H  0.56960386  0.23551572  0.72238660     0.15200
C427        C  0.64858359  0.70218111  0.64048624     0.30700
C428        C  0.63865104  0.66611572  0.63666389    -0.35700
C429        C  0.60645923  0.64429088  0.61629713     0.16700
C430        C  0.58528177  0.65681203  0.60073652     0.22500
C431        C  0.59522516  0.69291657  0.60463940    -0.33800
C432        C  0.62762390  0.71485811  0.62473161     0.16600
O433        O  0.67580394  0.72660958  0.66148926    -0.25800
C434        C  0.67228463  0.75533873  0.65897027     0.06400
C435        C  0.64311536  0.74967726  0.63594304    -0.30700
O436        O  0.55760305  0.63205914  0.58038145    -0.22500
C437        C  0.56137589  0.60351238  0.58301250    -0.02500
C438        C  0.59102325  0.60951237  0.60532252    -0.16900
H439        H  0.65473595  0.65573767  0.64891611     0.21000
H440        H  0.57897398  0.70322617  0.59271657     0.19400
H441        H  0.63262950  0.76748683  0.63183126     0.19400
H442        H  0.60122928  0.59154645  0.61015157     0.15200
C443        C  0.66030920  0.93845960  0.60769846     0.30700
C444        C  0.65578315  0.96796498  0.60228716    -0.35700
C445        C  0.62205870  0.96021161  0.58829733     0.16700
C446        C  0.59467697  0.92590512  0.57925359     0.22500
C447        C  0.59947872  0.89633324  0.58376509    -0.33800
C448        C  0.63321475  0.90401575  0.59836042     0.16600
O449        O  0.68630173  0.93895416  0.62856583    -0.25800
C450        C  0.67614452  0.90450846  0.63255005     0.06400
C451        C  0.64368484  0.88157602  0.61348002    -0.30700
O452        O  0.56511565  0.92509781  0.56711842    -0.22500
C453        C  0.57384855  0.95938106  0.56874313    -0.02500
C454        C  0.60887613  0.98225805  0.58190281    -0.16900
H455        H  0.67626874  0.99484519  0.61101798     0.21000
H456        H  0.57782953  0.86909741  0.57832212     0.19400
H457        H  0.62721800  0.85268019  0.61664553     0.19400
H458        H  0.62304950  0.01122137  0.58490287     0.15200
C459        C  0.59198650  0.66975447  0.92107714     0.30700
C460        C  0.59501000  0.70281846  0.91230008    -0.35700
C461        C  0.62862267  0.72952546  0.89765684     0.16700
C462        C  0.65728554  0.72407495  0.89208288     0.22500
C463        C  0.65453726  0.69137669  0.90184874    -0.33800
C464        C  0.62090037  0.66466831  0.91605637     0.16600
O465        O  0.56271786  0.64052847  0.93366625    -0.25800
C466        C  0.57319816  0.61655359  0.93653559     0.06400
C467        C  0.60907197  0.63010378  0.92590054    -0.30700
O468        O  0.68367805  0.74994027  0.87138100    -0.22500
C469        C  0.67206122  0.77249941  0.86404206    -0.02500
C470        C  0.63821643  0.76144134  0.88022361    -0.16900
H471        H  0.57226379  0.70685668  0.91479698     0.21000
H472        H  0.67636974  0.68636414  0.89639184     0.19400
H473        H  0.62441888  0.61659389  0.92623175     0.19400
H474        H  0.62112665  0.77259766  0.87474056     0.15200
C475        C  0.55779363  0.91426813  0.88778413     0.30700
C476        C  0.56928303  0.88915927  0.88631999    -0.35700
C477        C  0.60191925  0.90032595  0.86609559     0.16700
C478        C  0.62167443  0.93371656  0.84854591     0.22500
C479        C  0.60972314  0.95819903  0.84896501    -0.33800
C480        C  0.57723458  0.94705579  0.86886976     0.16600
O481        O  0.53150819  0.91225417  0.91013490    -0.25800
C482        C  0.53424869  0.94407900  0.90491076     0.06400
C483        C  0.56164845  0.96623999  0.87876258    -0.30700
O484        O  0.65063085  0.93830126  0.83009497    -0.22500
C485        C  0.64944233  0.90731900  0.83537630    -0.02500
C486        C  0.61989642  0.88275244  0.85795589    -0.16900
H487        H  0.55455135  0.86333150  0.90098780     0.21000
H488        H  0.62510522  0.98448010  0.83537931     0.19400
H489        H  0.57180030  0.99435097  0.87240870     0.19400
H490        H  0.61131769  0.85499781  0.86435786     0.15200
C491        C  0.40284331  0.32702094  0.10005723     0.30700
C492        C  0.38724152  0.28990315  0.09485421    -0.35700
C493        C  0.35349929  0.26842417  0.11276336     0.16700
C494        C  0.33619473  0.28237088  0.13414910     0.22500
C495        C  0.35203673  0.31956231  0.13989498    -0.33800
C496        C  0.38606883  0.34113627  0.12236970     0.16600
O497        O  0.43260908  0.35200624  0.08291377    -0.25800
C498        C  0.43551772  0.38262478  0.09505752     0.06400
C499        C  0.40752134  0.37756280  0.12008860    -0.30700
O500        O  0.30612645  0.25716268  0.15067286    -0.22500
C501        C  0.30385881  0.22633937  0.14003358    -0.02500
C502        C  0.33306379  0.23217853  0.11627571    -0.16900
H503        H  0.40042907  0.27856815  0.07786012     0.21000
H504        H  0.33891199  0.33083139  0.15711418     0.19400
H505        H  0.40177439  0.39760975  0.13126444     0.19400
H506        H  0.34102990  0.21333823  0.10680729     0.15200
C507        C  0.32887269  0.27952154  0.36496254     0.30700
C508        C  0.34339654  0.29700981  0.40097232    -0.35700
C509        C  0.37314370  0.33194206  0.39807186     0.16700
C510        C  0.38728215  0.34916363  0.36236941     0.22500
C511        C  0.37232752  0.33184176  0.32629055    -0.33800
C512        C  0.34298283  0.29652034  0.32918099     0.16600
O513        O  0.30451332  0.24518219  0.36076849    -0.25800
C514        C  0.30296191  0.23989122  0.32178405     0.06400
C515        C  0.32611522  0.27114839  0.30075621    -0.30700
O516        O  0.41634884  0.38130940  0.36691244    -0.22500
C517        C  0.42100717  0.38418117  0.40603279    -0.02500
C518        C  0.39485273  0.35435438  0.42672640    -0.16900
H519        H  0.33357542  0.28357972  0.42924450     0.21000
H520        H  0.38389368  0.34429152  0.29799626     0.19400
H521        H  0.33225881  0.27387955  0.26931670     0.19400
H522        H  0.39230206  0.34982900  0.45847813     0.15200
C523        C  0.41531231  0.08392018  0.38704543     0.30700
C524        C  0.40239654  0.10780897  0.38654976    -0.35700
C525        C  0.37100015  0.09695433  0.36443030     0.16700
C526        C  0.35337211  0.06491334  0.34419783     0.22500
C527        C  0.36693810  0.04142773  0.34359294    -0.33800
C528        C  0.39859360  0.05236323  0.36553359     0.16600
O529        O  0.44185058  0.08689638  0.40922671    -0.25800
C530        C  0.44283799  0.05730742  0.40112594     0.06400
C531        C  0.41685477  0.03502368  0.37373191    -0.30700
O532        O  0.32452146  0.06051138  0.32542454    -0.22500
C533        C  0.32332584  0.09012671  0.33369586    -0.02500
C534        C  0.35244999  0.11397826  0.35732852    -0.16900
H535        H  0.41538787  0.13272306  0.40311449     0.21000
H536        H  0.35348304  0.01618718  0.32765914     0.19400
H537        H  0.41020881  0.00840683  0.36429949     0.19400
H538        H  0.36111386  0.14129199  0.36573911     0.15200
C539        C  0.41314680  0.07873821  0.12147026     0.30700
C540        C  0.39799767  0.10046794  0.11736050    -0.35700
C541        C  0.36378039  0.08708963  0.13409147     0.16700
C542        C  0.34579970  0.05488335  0.15411568     0.22500
C543        C  0.36130237  0.03334560  0.15899603    -0.33800
C544        C  0.39559264  0.04657114  0.14186364     0.16600
O545        O  0.44207155  0.08356003  0.10278046    -0.25800
C546        C  0.44363420  0.05444638  0.11149836     0.06400
C547        C  0.41567080  0.03062210  0.13629621    -0.30700
O548        O  0.31426621  0.04816148  0.16793397    -0.22500
C549        C  0.31172714  0.07625307  0.15620060    -0.02500
C550        C  0.34220980  0.10139103  0.13520369    -0.16900
H551        H  0.41131320  0.12536603  0.10074106     0.21000
H552        H  0.34720473  0.00766644  0.17405093     0.19400
H553        H  0.40838925  0.00348619  0.14421227     0.19400
H554        H  0.34910378  0.12782687  0.12490552     0.15200
C555        C  0.65871377  0.06048983  0.36291394     0.30700
C556        C  0.67546231  0.06107675  0.32683072    -0.35700
C557        C  0.71094348  0.06781201  0.32963666     0.16700
C558        C  0.72863631  0.07341615  0.36534244     0.22500
C559        C  0.71211380  0.07322776  0.40118857    -0.33800
C560        C  0.67693646  0.06686860  0.39837981     0.16600
O561        O  0.62515464  0.05324817  0.36787876    -0.25800
C562        C  0.62232663  0.05562648  0.40701450     0.06400
C563        C  0.65382484  0.06428520  0.42723459    -0.30700
O564        O  0.76219824  0.08097407  0.36106673    -0.22500
C565        C  0.76638980  0.08049501  0.32203140    -0.02500
C566        C  0.73519648  0.07221047  0.30102694    -0.16900
H567        H  0.66189520  0.05670150  0.29862397     0.21000
H568        H  0.72588061  0.07808858  0.42933125     0.19400
H569        H  0.65840674  0.06648569  0.45895576     0.19400
H570        H  0.73172403  0.07198184  0.26919520     0.15200
C571        C  0.71647502  0.07081751  0.14159537     0.30700
C572        C  0.68250046  0.06610121  0.15009578    -0.35700
C573        C  0.66108989  0.06213008  0.11723473     0.16700
C574        C  0.67246493  0.06297873  0.07867299     0.22500
C575        C  0.70650743  0.06770079  0.07016674    -0.33800
C576        C  0.72783356  0.07137657  0.10310251     0.16600
O577        O  0.74136839  0.07673876  0.16777063    -0.25800
C578        C  0.76914655  0.08126292  0.14591876     0.06400
C579        C  0.76211957  0.07762918  0.10539568    -0.30700
O580        O  0.64744788  0.05718261  0.05259796    -0.22500
C581        C  0.61970241  0.05233926  0.07477547    -0.02500
C582        C  0.62666092  0.05533928  0.11522059    -0.16900
H583        H  0.67343502  0.06558217  0.18022656     0.21000
H584        H  0.71560815  0.06826768  0.04004570     0.19400
H585        H  0.78031396  0.08122024  0.08125151     0.19400
H586        H  0.60851320  0.05150356  0.13951068     0.15200
C587        C  0.95334911  0.34297809  0.36334691     0.30700
C588        C  0.95894131  0.32814738  0.32881619    -0.35700
C589        C  0.95325131  0.29322110  0.33257452     0.16700
C590        C  0.94343425  0.27450652  0.36792448     0.22500
C591        C  0.93798191  0.28932628  0.40229097    -0.33800
C592        C  0.94272449  0.32367629  0.39830001     0.16600
O593        O  0.95749727  0.37535704  0.36717974    -0.25800
C594        C  0.94871212  0.37629768  0.40496027     0.06400
C595        C  0.93897448  0.34467320  0.42540269    -0.30700
O596        O  0.93486101  0.24078074  0.36377319    -0.22500
C597        C  0.93835025  0.23723609  0.32509572    -0.02500
C598        C  0.95070246  0.26943086  0.30444800    -0.16900
H599        H  0.96600924  0.34229406  0.30074133     0.21000
H600        H  0.92899210  0.27440734  0.42983063     0.19400
H601        H  0.93233772  0.33886276  0.45656505     0.19400
H602        H  0.95274026  0.27349449  0.27272562     0.15200
C603        C  0.77378321  0.36952757  0.66506864     0.30700
C604        C  0.79244461  0.36156771  0.63603353    -0.35700
C605        C  0.82393197  0.39103934  0.61982684     0.16700
C606        C  0.83605249  0.42601309  0.63114230     0.22500
C607        C  0.81788303  0.43386942  0.66083178    -0.33800
C608        C  0.78662144  0.40441530  0.67727791     0.16600
O609        O  0.74293229  0.34636686  0.68277366    -0.25800
C610        C  0.73616268  0.36654781  0.70730765     0.06400
C611        C  0.76258674  0.40286766  0.70515556    -0.30700
O612        O  0.86503974  0.44959812  0.61088444    -0.22500
C613        C  0.87206896  0.42961352  0.58633683    -0.02500
C614        C  0.84743584  0.39288298  0.59098344    -0.16900
H615        H  0.78273793  0.33430488  0.62624249     0.21000
H616        H  0.82716889  0.46119453  0.67004869     0.19400
H617        H  0.76329182  0.42502452  0.72094177     0.19400
H618        H  0.84657632  0.37079313  0.57487246     0.15200
C619        C  0.95119966  0.27921574  0.10940572     0.30700
C620        C  0.95055884  0.29807565  0.07608828    -0.35700
C621        C  0.95835090  0.33321571  0.08309277     0.16700
C622        C  0.96704214  0.34929000  0.12003037     0.22500
C623        C  0.96832529  0.33061298  0.15327072    -0.33800
C624        C  0.95985909  0.29518312  0.14636926     0.16600
O625        O  0.93955054  0.24452719  0.11077152    -0.25800
C626        C  0.94060569  0.23810867  0.14916149     0.06400
C627        C  0.95345550  0.26885974  0.17243825    -0.30700
O628        O  0.97165274  0.38192488  0.11978279    -0.22500
C629        C  0.96526575  0.38632970  0.08224024    -0.02500
C630        C  0.95706697  0.35698134  0.05823566    -0.16900
H631        H  0.94244761  0.28555940  0.04718387     0.21000
H632        H  0.97366100  0.34217538  0.18273919     0.19400
H633        H  0.95414901  0.27079206  0.20439753     0.19400
H634        H  0.95103222  0.35367509  0.02681866     0.15200
C635        C  0.83517815  0.40880117  0.87455610     0.30700
C636        C  0.81834813  0.38577913  0.84180483    -0.35700
C637        C  0.78612023  0.38301493  0.82781834     0.16700
C638        C  0.77097404  0.40103272  0.84543238     0.22500
C639        C  0.78808137  0.42447532  0.87774882    -0.33800
C640        C  0.82068951  0.42780898  0.89120708     0.16600
O641        O  0.86555500  0.41549937  0.89222872    -0.25800
C642        C  0.87112961  0.43962986  0.92039616     0.06400
C643        C  0.84400783  0.44833926  0.92081421    -0.30700
O644        O  0.74001340  0.39347234  0.82867738    -0.22500
C645        C  0.73540987  0.37084066  0.79917471    -0.02500
C646        C  0.76345777  0.36350800  0.79727490    -0.16900
H647        H  0.82966939  0.37106483  0.82806703     0.21000
H648        H  0.77673660  0.43917415  0.89147621     0.19400
H649        H  0.84176116  0.46705975  0.94024286     0.19400
H650        H  0.76618914  0.34558445  0.77702166     0.15200
C651        C  0.94178157  0.65602596  0.36519648     0.30700
C652        C  0.94112326  0.63975865  0.40125139    -0.35700
C653        C  0.94774783  0.61135039  0.39898500     0.16700
C654        C  0.95521676  0.59991925  0.36386695     0.22500
C655        C  0.95619564  0.61646478  0.32768859    -0.33800
C656        C  0.94906157  0.64470151  0.32987448     0.16600
O657        O  0.93193670  0.67996686  0.36007929    -0.25800
C658        C  0.93284589  0.68417982  0.32094900     0.06400
C659        C  0.94373751  0.66317444  0.30067070    -0.30700
O660        O  0.95999431  0.57232225  0.36897541    -0.22500
C661        C  0.95490115  0.56586493  0.40779201    -0.02500
C662        C  0.94734209  0.58941039  0.42779666    -0.16900
H663        H  0.93434424  0.64766169  0.42894927     0.21000
H664        H  0.96091218  0.60718794  0.29971086     0.19400
H665        H  0.94396660  0.65930615  0.26893709     0.19400
H666        H  0.94285823  0.59059345  0.45926532     0.15200
C667        C  0.94225040  0.65479187  0.14430448     0.30700
C668        C  0.96270321  0.63844465  0.15100623    -0.35700
C669        C  0.94828512  0.60354788  0.13602999     0.16700
C670        C  0.91628018  0.58630057  0.11525446     0.22500
C671        C  0.89535603  0.60227190  0.10955898    -0.33800
C672        C  0.90970609  0.63702730  0.12483691     0.16600
O673        O  0.95003417  0.68673717  0.15691823    -0.25800
C674        C  0.92212124  0.68983057  0.14559117     0.06400
C675        C  0.89605017  0.65919779  0.12559181    -0.30700
O676        O  0.91090376  0.55662358  0.09818448    -0.22500
C677        C  0.93934836  0.55429895  0.10884998    -0.02500
C678        C  0.96319611  0.58245371  0.13307932    -0.16900
H679        H  0.98838513  0.65223846  0.16617258     0.21000
H680        H  0.87028841  0.58903768  0.09317294     0.19400
H681        H  0.86928309  0.65227391  0.11626978     0.19400
H682        H  0.99010729  0.58927460  0.14187295     0.15200
C683        C  0.72847678  0.64480859  0.37057519     0.30700
C684        C  0.71192246  0.62511989  0.40497188    -0.35700
C685        C  0.67508626  0.59984959  0.40182336     0.16700
C686        C  0.65562771  0.59437456  0.36741382     0.22500
C687        C  0.67230376  0.61397432  0.33288761    -0.33800
C688        C  0.70925476  0.63920699  0.33598574     0.16600
O689        O  0.76308892  0.66822689  0.36619312    -0.25800
C690        C  0.76625610  0.67768782  0.32822310     0.06400
C691        C  0.73347631  0.66066600  0.30809231    -0.30700
O692        O  0.62100919  0.57047629  0.37192836    -0.22500
C693        C  0.61851924  0.56043543  0.40963968    -0.02500
C694        C  0.65136788  0.57770203  0.42950032    -0.16900
H695        H  0.72677971  0.62899389  0.43216675     0.21000
H696        H  0.65756265  0.60982544  0.30555584     0.19400
H697        H  0.72867775  0.66182956  0.27675649     0.19400
H698        H  0.65663239  0.57564863  0.46049743     0.15200
C699        C  0.65612775  0.60435615  0.13237205     0.30700
C700        C  0.67397642  0.63509801  0.15627284    -0.35700
C701        C  0.71153540  0.65589113  0.15129700     0.16700
C702        C  0.73034176  0.64689322  0.12528374     0.22500
C703        C  0.71265075  0.61606928  0.10162140    -0.33800
C704        C  0.67511854  0.59546010  0.10625185     0.16600
O705        O  0.62083598  0.58335871  0.12864543    -0.25800
C706        C  0.61733326  0.56076535  0.09978656     0.06400
C707        C  0.65024723  0.56687987  0.08517476    -0.30700
O708        O  0.76540573  0.66942902  0.12668663    -0.22500
C709        C  0.76959479  0.69376414  0.15377736    -0.02500
C710        C  0.73643228  0.68639926  0.16978180    -0.16900
H711        H  0.65953675  0.64281929  0.17651303     0.21000
H712        H  0.72704915  0.60898757  0.08056109     0.19400
H713        H  0.65506451  0.55434406  0.05993109     0.19400
H714        H  0.73066246  0.69973495  0.19321604     0.15200
C715        C  0.27952383  0.90223202  0.62737468     0.30700
C716        C  0.30198832  0.89105500  0.61021850    -0.35700
C717        C  0.33643214  0.91861327  0.59855740     0.16700
C718        C  0.34755121  0.95449423  0.60329205     0.22500
C719        C  0.32510826  0.96560877  0.62008521    -0.33800
C720        C  0.29087637  0.93820754  0.63169248     0.16600
O721        O  0.24779243  0.88130319  0.64394698    -0.25800
C722        C  0.23884193  0.90424104  0.65886661     0.06400
C723        C  0.26438764  0.93999978  0.65159069    -0.30700
O724        O  0.38023998  0.97586696  0.58964440    -0.22500
C725        C  0.39058697  0.95366356  0.57605283    -0.02500
C726        C  0.36452680  0.91753916  0.58093701    -0.16900
H727        H  0.29351874  0.86293265  0.60705972     0.21000
H728        H  0.33395158  0.99372636  0.62429217     0.19400
H729        H  0.26482145  0.96372518  0.66266534     0.19400
H730        H  0.36548939  0.89416382  0.57128019     0.15200
C731        C  0.03990345  0.63995586  0.61452285     0.30700
C732        C  0.02802996  0.66095976  0.63333829    -0.35700
C733        C  0.05503349  0.69530622  0.64489113     0.16700
C734        C  0.09125885  0.70809738  0.63840951     0.22500
C735        C  0.10316740  0.68693470  0.61976939    -0.33800
C736        C  0.07609417  0.65243202  0.60828236     0.16600
O737        O  0.01907530  0.60781919  0.59958122    -0.25800
C738        C  0.04206277  0.59928386  0.58384340     0.06400
C739        C  0.07803193  0.62589869  0.58851096    -0.30700
O740        O  0.11189982  0.74043845  0.65326103    -0.22500
C741        C  0.08856142  0.74833081  0.66942880    -0.02500
C742        C  0.05276936  0.72134548  0.66498347    -0.16900
H743        H  0.99969088  0.65121845  0.63846330     0.21000
H744        H  0.13150697  0.69664265  0.61473624     0.19400
H745        H  0.10181436  0.62647465  0.57700253     0.19400
H746        H  0.02888275  0.72033088  0.67686219     0.15200
C747        C  0.32218578  0.93753153  0.92807813     0.30700
C748        C  0.28703749  0.90948617  0.92075610    -0.35700
C749        C  0.26465881  0.91908600  0.90102573     0.16700
C750        C  0.27612578  0.95382324  0.88895483     0.22500
C751        C  0.31099088  0.98202414  0.89721189    -0.33800
C752        C  0.33329059  0.97242351  0.91706451     0.16600
O753        O  0.34825464  0.93439145  0.94416051    -0.25800
C754        C  0.37622920  0.96775665  0.94356298     0.06400
C755        C  0.36848476  0.99255089  0.92725110    -0.30700
O756        O  0.25298952  0.95563293  0.86508684    -0.22500
C757        C  0.22617598  0.92175260  0.86246795    -0.02500
C758        C  0.23175685  0.89796794  0.88464867    -0.16900
H759        H  0.27828881  0.88188473  0.92820598     0.21000
H760        H  0.32068308  0.00915315  0.88693208     0.19400
H761        H  0.38634967  0.02118176  0.92317894     0.19400
H762        H  0.21609558  0.86887856  0.88423660     0.15200
C763        C  0.04912752  0.72687468  0.90146644     0.30700
C764        C  0.02075009  0.69244050  0.91074392    -0.35700
C765        C  0.03069845  0.66907570  0.92708788     0.16700
C766        C  0.06604119  0.67885355  0.93456096     0.22500
C767        C  0.09435495  0.71387277  0.92701370    -0.33800
C768        C  0.08446638  0.73726407  0.91025373     0.16600
O769        O  0.04669626  0.74965693  0.87768393    -0.25800
C770        C  0.08077545  0.77528721  0.87185244     0.06400
C771        C  0.10535741  0.76937454  0.89205761    -0.30700
O772        O  0.06920242  0.65158408  0.94674799    -0.22500
C773        C  0.03537090  0.62416333  0.94699493    -0.02500
C774        C  0.01039103  0.63359394  0.93525029    -0.16900
H775        H  0.99315128  0.68351209  0.90260263     0.21000
H776        H  0.12229584  0.72156744  0.93115698     0.19400
H777        H  0.13438075  0.78355763  0.88826938     0.19400
H778        H  0.98138540  0.61658658  0.93278991     0.15200
C779        C  0.33927551  0.40756417  0.60011866     0.30700
C780        C  0.30385252  0.39972837  0.60596046    -0.35700
C781        C  0.28088783  0.36718292  0.62513891     0.16700
C782        C  0.29200794  0.34408734  0.63812306     0.22500
C783        C  0.32730845  0.35174739  0.63194813    -0.33800
C784        C  0.35019536  0.38419287  0.61263404     0.16600
O785        O  0.36498335  0.43577021  0.58136594    -0.25800
C786        C  0.39254995  0.43018429  0.58194630     0.06400
C787        C  0.38496287  0.39868328  0.60121169    -0.30700
O788        O  0.26725626  0.31731835  0.65939232    -0.22500
C789        C  0.23986575  0.32318636  0.65952081    -0.02500
C790        C  0.24667794  0.35356547  0.63833526    -0.16900
H791        H  0.29492331  0.41785609  0.59659272     0.21000
H792        H  0.33648664  0.33405394  0.64220324     0.19400
H793        H  0.40197616  0.38711080  0.60422175     0.19400
H794        H  0.23022105  0.36585491  0.63673494     0.15200
C795        C  0.27182019  0.37504615  0.89349791     0.30700
C796        C  0.29622648  0.41000199  0.90681196    -0.35700
C797        C  0.33018782  0.41636204  0.91843545     0.16700
C798        C  0.33910086  0.38992168  0.91722682     0.22500
C799        C  0.31468413  0.35500375  0.90445310    -0.33800
C800        C  0.28088034  0.34868492  0.89281330     0.16600
O801        O  0.24081973  0.36468207  0.87593734    -0.25800
C802        C  0.22990021  0.33131776  0.86408161     0.06400
C803        C  0.25349924  0.31972091  0.87434560    -0.30700
O804        O  0.37227385  0.40157061  0.92864189    -0.22500
C805        C  0.38507003  0.43597402  0.93719805    -0.02500
C806        C  0.36014244  0.44689641  0.93148328    -0.16900
H807        H  0.28974251  0.43110413  0.90644484     0.21000
H808        H  0.32200724  0.33453990  0.90243805     0.19400
H809        H  0.25285285  0.29547652  0.86485432     0.19400
H810        H  0.36334589  0.47303071  0.93695803     0.15200
C811        C  0.05974757  0.33722222  0.60915843     0.30700
C812        C  0.03076810  0.34207281  0.60142592    -0.35700
C813        C  0.03959239  0.37511048  0.58498967     0.16700
C814        C  0.07439589  0.40157125  0.57560626     0.22500
C815        C  0.10351069  0.39632700  0.58227363    -0.33800
C816        C  0.09474970  0.36330109  0.59957731     0.16600
O817        O  0.05812476  0.31196763  0.63216182    -0.25800
C818        C  0.09238825  0.32160087  0.63723865     0.06400
C819        C  0.11639094  0.35296086  0.61705068    -0.30700
O820        O  0.07610319  0.43106741  0.56206842    -0.22500
C821        C  0.04189610  0.42303762  0.56330529    -0.02500
C822        C  0.01822897  0.38868318  0.57734010    -0.16900
H823        H  0.00350428  0.32256594  0.61048461     0.21000
H824        H  0.13113890  0.41729770  0.57676821     0.19400
H825        H  0.14543551  0.36869776  0.62020402     0.19400
H826        H  0.98921527  0.37538939  0.58083997     0.15200
C827        C  0.06056858  0.37017231  0.85752079     0.30700
C828        C  0.03390886  0.37919967  0.86091462    -0.35700
C829        C  0.04447059  0.41200434  0.87926884     0.16700
C830        C  0.07867842  0.43435099  0.89409224     0.22500
C831        C  0.10555566  0.42535615  0.89051392    -0.33800
C832        C  0.09505088  0.39252726  0.87169374     0.16600
O833        O  0.05718978  0.34210599  0.83853341    -0.25800
C834        C  0.08989964  0.34641020  0.84052201     0.06400
C835        C  0.11453878  0.37715154  0.86108618    -0.30700
O836        O  0.08118049  0.46193328  0.91378482    -0.22500
C837        C  0.04818430  0.45704354  0.91102894    -0.02500
C838        C  0.02455979  0.42674664  0.88933996    -0.16900
H839        H  0.00683703  0.36192130  0.84982085     0.21000
H840        H  0.13256199  0.44252266  0.90181525     0.19400
H841        H  0.14325572  0.38807270  0.86455510     0.19400
H842        H  0.99578338  0.41515075  0.88533765     0.15200
C843        C  0.20881130  0.61476605  0.18781435     0.30700
C844        C  0.17174816  0.60365391  0.18639058    -0.35700
C845        C  0.15393297  0.58987822  0.14983512     0.16700
C846        C  0.17141130  0.58763969  0.11658453     0.22500
C847        C  0.20847824  0.59855851  0.11814877    -0.33800
C848        C  0.22619911  0.61188814  0.15493576     0.16600
O849        O  0.23042550  0.62790699  0.21909873    -0.25800
C850        C  0.26233964  0.63303867  0.20687860     0.06400
C851        C  0.26105052  0.62370585  0.16678537    -0.30700
O852        O  0.14944718  0.57375702  0.08552528    -0.22500
C853        C  0.11714838  0.56650369  0.09908221    -0.02500
C854        C  0.11857903  0.57601588  0.13900874    -0.16900
H855        H  0.15760905  0.60522426  0.21222982     0.21000
H856        H  0.22249470  0.59644064  0.09252060     0.19400
H857        H  0.28250337  0.62484815  0.14888238     0.19400
H858        H  0.09658885  0.57299453  0.15748745     0.15200
C859        C  0.16896627  0.58806312  0.38792335     0.30700
C860        C  0.20648528  0.61340305  0.38744594    -0.35700
C861        C  0.22509255  0.61686388  0.35145491     0.16700
C862        C  0.20800069  0.59647802  0.31849196     0.22500
C863        C  0.17062601  0.57145553  0.31885769    -0.33800
C864        C  0.15200034  0.56833324  0.35448506     0.16600
O865        O  0.14624054  0.58011676  0.41827679    -0.25800
C866        C  0.11411369  0.55514505  0.40396128     0.06400
C867        C  0.11630158  0.54708481  0.36429135    -0.30700
O868        O  0.23017262  0.60401640  0.28793141    -0.22500
C869        C  0.26219294  0.63034874  0.30056322    -0.02500
C870        C  0.26054321  0.63902728  0.34035221    -0.16900
H871        H  0.22019130  0.62944914  0.41326179     0.21000
H872        H  0.15689819  0.55565131  0.29290884     0.19400
H873        H  0.09472339  0.52778935  0.34554071     0.19400
H874        H  0.28205827  0.65932325  0.35835124     0.15200
C875        C  0.41551239  0.56828752  0.14785716     0.30700
C876        C  0.39676115  0.56612936  0.18325139    -0.35700
C877        C  0.38682403  0.59237544  0.18872652     0.16700
C878        C  0.39509838  0.61928907  0.16159784     0.22500
C879        C  0.41322790  0.62101787  0.12582015    -0.33800
C880        C  0.42276732  0.59448335  0.12004966     0.16600
O881        O  0.42778298  0.54685219  0.13696686    -0.25800
C882        C  0.44271654  0.55897743  0.10121879     0.06400
C883        C  0.44010609  0.58851626  0.08927152    -0.30700
O884        O  0.38435996  0.64176526  0.17345431    -0.22500
C885        C  0.36899344  0.62933887  0.20898355    -0.02500
C886        C  0.36902089  0.59794843  0.21916057    -0.16900
H887        H  0.39051953  0.54550312  0.20520722     0.21000
H888        H  0.41965169  0.64177989  0.10399581     0.19400
H889        H  0.45004213  0.60373661  0.06202264     0.19400
H890        H  0.35754074  0.58137891  0.24528511     0.15200
C891        C  0.41119803  0.58093348  0.38885228     0.30700
C892        C  0.38400603  0.59014203  0.38685582    -0.35700
C893        C  0.38297251  0.60796188  0.35203195     0.16700
C894        C  0.40732539  0.61655158  0.32145275     0.22500
C895        C  0.43437756  0.60727477  0.32337208    -0.33800
C896        C  0.43506966  0.58901178  0.35784160     0.16600
O897        O  0.41671561  0.56364905  0.41821075    -0.25800
C898        C  0.44431886  0.56007527  0.40576509     0.06400
C899        C  0.45658026  0.57537001  0.36822706    -0.30700
O900        O  0.40108704  0.63242953  0.29130021    -0.22500
C901        C  0.37180137  0.63372813  0.30197081    -0.02500
C902        C  0.35976024  0.61918281  0.33991805    -0.16900
H903        H  0.36459696  0.58338468  0.41060023     0.21000
H904        H  0.45326074  0.61331716  0.29921764     0.19400
H905        H  0.47835108  0.57636359  0.35104572     0.19400
H906        H  0.33650808  0.61620944  0.35580438     0.15200
C907        C  0.40579674  0.79096273  0.18394313     0.30700
C908        C  0.43349719  0.82725762  0.17982006    -0.35700
C909        C  0.43250678  0.84561858  0.14562482     0.16700
C910        C  0.40633766  0.82935583  0.11692571     0.22500
C911        C  0.37850034  0.79296784  0.12112347    -0.33800
C912        C  0.37927568  0.77467981  0.15564350     0.16600
O913        O  0.40116559  0.76925559  0.21414095    -0.25800
C914        C  0.37083347  0.73842777  0.20580903     0.06400
C915        C  0.35638783  0.74033708  0.16933159    -0.30700
O916        O  0.41067217  0.85170048  0.08735915    -0.22500
C917        C  0.43994749  0.88300034  0.09732019    -0.02500
C918        C  0.45439370  0.88053161  0.13346201    -0.16900
H919        H  0.45422308  0.84048387  0.20210504     0.21000
H920        H  0.35742723  0.77988737  0.09917815     0.19400
H921        H  0.33197668  0.71964078  0.15535702     0.19400
H922        H  0.47779620  0.90153506  0.14862780     0.15200
C923        C  0.39376526  0.79469115  0.31627139     0.30700
C924        C  0.40934664  0.83242108  0.31605015    -0.35700
C925        C  0.42180814  0.85025794  0.35280376     0.16700
C926        C  0.41887411  0.83224003  0.38760527     0.22500
C927        C  0.40344006  0.79448667  0.38772650    -0.33800
C928        C  0.39125182  0.77668440  0.35085650     0.16600
O929        O  0.38091678  0.77285644  0.28519204    -0.25800
C930        C  0.37028331  0.74006875  0.29944631     0.06400
C931        C  0.37600592  0.74112777  0.34049961    -0.30700
O932        O  0.43218253  0.85424749  0.41861564    -0.22500
C933        C  0.44414798  0.88705577  0.40357204    -0.02500
C934        C  0.43836442  0.88598046  0.36265351    -0.16900
H935        H  0.41185149  0.84694405  0.28895583     0.21000
H936        H  0.40128477  0.77997287  0.41470929     0.19400
H937        H  0.37047195  0.71912069  0.36011102     0.19400
H938        H  0.44529536  0.90836313  0.34297871     0.15200
loop_ 
_geom_bond_atom_site_label_1 
_geom_bond_atom_site_label_2 
_geom_bond_distance 
_geom_bond_site_symmetry_2 
_ccdc_geom_bond_type 
C1            H2   1.109       .  S
C1            C7   1.563       .  S
C1            C6   1.562       .  S
C1            C5   1.560       .  S
C3            H4   1.106       .  S
C3            C9   1.562       .  S
C3            C8   1.564       .  S
C3           C10   1.557       .  S
C5            C8   1.390       .  D
C5          C914   1.519       .  S
C6            C9   1.391       .  D
C6          C850   1.527       .  S
C7           C10   1.387       .  D
C7          C885   1.519       .  S
C8          C930   1.523       .  S
C9          C869   1.518       .  S
C10         C901   1.522       .  S
N11          C16   1.353       .  A
N11          C15   1.354       .  A
N11          H43   1.041       .  S
N12          C19   1.347       .  A
N12          C20   1.345       .  A
N13          C18   1.354       .  A
N13          C17   1.353       .  A
N13          H44   1.042       .  S
N14          C21   1.346       .  A
N14          C22   1.348       .  A
C15          C23   1.388       .  A
C15          C31   1.413       .  A
C16          C32   1.413       .  A
C16          C24   1.389       .  A
C17          C25   1.389       .  A
C17          C34   1.412       .  A
C18          C33   1.411       .  A
C18          C26   1.387       .  A
C19          C31   1.400       .  A
C19          C27   1.385       .  A
C20          C34   1.401       .  A
C20          C28   1.387       .  A
C21          C29   1.386       .  A
C21          C32   1.403       .  A
C22          C30   1.385       .  A
C22          C33   1.401       .  A
C23          C24   1.366       .  A
C23          H35   1.081       .  S
C24          H36   1.081       .  S
C25          C26   1.365       .  A
C25          H37   1.081       .  S
C26          H38   1.082       .  S
C27          C28   1.370       .  A
C27          H39   1.083       .  S
C28          H40   1.083       .  S
C29          C30   1.371       .  A
C29          H41   1.083       .  S
C30          H42   1.083       .  S
C31         C818   1.471       .  S
C32         C834   1.472       .  S
C33         C802   1.474       .  S
C34         C789   1.470       .  S
N45          C50   1.352       .  A
N45          C49   1.352       .  A
N45          H77   1.050       .  S
N46          C53   1.349       .  A
N46          C54   1.349       .  A
N47          C52   1.353       .  A
N47          C51   1.353       .  A
N47          H78   1.046       .  S
N48          C55   1.347       .  A
N48          C56   1.346       .  A
C49          C57   1.386       .  A
C49          C65   1.410       .  A
C50          C66   1.413       .  A
C50          C58   1.389       .  A
C51          C59   1.387       .  A
C51          C68   1.412       .  A
C52          C67   1.413       .  A
C52          C60   1.389       .  A
C53          C65   1.404       .  A
C53          C61   1.386       .  A
C54          C68   1.404       .  A
C54          C62   1.386       .  A
C55          C63   1.386       .  A
C55          C66   1.401       .  A
C56          C64   1.386       .  A
C56          C67   1.402       .  A
C57          C58   1.369       .  A
C57          H69   1.082       .  S
C58          H70   1.082       .  S
C59          C60   1.367       .  A
C59          H71   1.082       .  S
C60          H72   1.081       .  S
C61          C62   1.372       .  A
C61          H73   1.082       .  S
C62          H74   1.082       .  S
C63          C64   1.371       .  A
C63          H75   1.083       .  S
C64          H76   1.083       .  S
C65         C741   1.474       .  S
C66         C770   1.472       .  S
C67         C757   1.472       .  S
C68         C722   1.476       .  S
N79          C84   1.346       .  A
N79          C83   1.347       .  A
N79         H111   1.042       .  S
N80          C87   1.351       .  A
N80          C88   1.349       .  A
N81          C86   1.349       .  A
N81          C85   1.346       .  A
N81         H112   1.041       .  S
N82          C89   1.349       .  A
N82          C90   1.350       .  A
C83          C91   1.385       .  A
C83          C99   1.406       .  A
C84         C100   1.404       .  A
C84          C92   1.385       .  A
C85          C93   1.387       .  A
C85         C102   1.405       .  A
C86         C101   1.407       .  A
C86          C94   1.385       .  A
C87          C99   1.414       .  A
C87          C95   1.387       .  A
C88         C102   1.412       .  A
C88          C96   1.385       .  A
C89          C97   1.387       .  A
C89         C100   1.409       .  A
C90          C98   1.386       .  A
C90         C101   1.409       .  A
C91          C92   1.380       .  A
C91         H103   1.082       .  S
C92         H104   1.082       .  S
C93          C94   1.379       .  A
C93         H105   1.082       .  S
C94         H106   1.082       .  S
C95          C96   1.376       .  A
C95         H107   1.082       .  S
C96         H108   1.082       .  S
C97          C98   1.371       .  A
C97         H109   1.080       .  S
C98         H110   1.081       .  S
C99         C709   1.500       .  S
C100        C690   1.479       .  S
C101        C658   1.481       .  S
C102        C674   1.493       .  S
O113        C129   1.280       .  A
O113       Zn119   2.053       .  S
C114        C853   1.506       .  S
C114        O130   1.280       .  A
C114        O127   1.277       .  A
O115        C128   1.268       .  A
O115       Cd122   1.999   1_455  S
O116        C134   1.279       .  A
O116       Cd125   2.095       .  S
O117        C131   1.271       .  A
O117       Cd121   2.029   1_554  S
O118        C129   1.272   1_655  A
O118       Cd121   2.026       .  S
Zn119       O130   2.098   1_556  S
Zn119       O132   2.049       .  S
Zn119       O124   1.986   1_456  S
O120        C131   1.278       .  A
O120       Cd125   2.087       .  S
Cd121       O123   2.116       .  S
Cd121       O124   1.990   1_556  S
Cd122       O126   2.120       .  S
Cd122       O135   2.031   1_556  S
Cd122       O124   1.982   1_556  S
O123        C133   1.275       .  A
O124       Cd125   2.020       .  S
Cd125       O127   2.110   1_655  S
O126        C133   1.275       .  A
C128        C837   1.456       .  S
C128        O132   1.278       .  A
C129        C773   1.464       .  S
C131        C677   1.458       .  S
C133        C642   1.503       .  S
C134        C629   1.464       .  S
C134        O135   1.273       .  A
O136        C152   1.277       .  A
O136       Zn142   2.077       .  S
C137        C738   1.461       .  S
C137        O153   1.278       .  A
C137        O150   1.269   1_455  A
O138        C151   1.270   1_655  A
O138       Cd145   2.012       .  S
O139        C157   1.276       .  A
O139       Cd148   2.117       .  S
O140        C154   1.280       .  A
O140       Cd144   2.093       .  S
O141        C152   1.277       .  A
O141       Cd144   2.110   1_455  S
Zn142       O153   2.046       .  S
Zn142       O155   2.045       .  S
Zn142       O147   1.981   1_455  S
O143        C154   1.275       .  A
O143       Cd148   2.042       .  S
Cd144       O146   2.106       .  S
Cd144       O147   2.019       .  S
Cd145       O149   2.038       .  S
Cd145       O158   2.109       .  S
Cd145       O147   1.988       .  S
O146        C156   1.280       .  A
O147       Cd148   1.989       .  S
Cd148       O150   2.026       .  S
O149        C156   1.273       .  A
C151        C821   1.460       .  S
C151        O155   1.278       .  A
C152        C866   1.500       .  S
C154        C661   1.467       .  S
C156        C594   1.473       .  S
C157        C613   1.498       .  S
C157        O158   1.275       .  A
N159        C164   1.348       .  A
N159        C163   1.347       .  A
N159        H191   1.039       .  S
N160        C167   1.353       .  A
N160        C168   1.354       .  A
N161        C166   1.347       .  A
N161        C165   1.348       .  A
N161        H192   1.040       .  S
N162        C169   1.350       .  A
N162        C170   1.351       .  A
C163        C171   1.386       .  A
C163        C179   1.407       .  A
C164        C180   1.405       .  A
C164        C172   1.387       .  A
C165        C173   1.385       .  A
C165        C182   1.407       .  A
C166        C181   1.408       .  A
C166        C174   1.388       .  A
C167        C179   1.415       .  A
C167        C175   1.385       .  A
C168        C182   1.418       .  A
C168        C176   1.388       .  A
C169        C177   1.386       .  A
C169        C180   1.411       .  A
C170        C178   1.388       .  A
C170        C181   1.413       .  A
C171        C172   1.378       .  A
C171        H183   1.083       .  S
C172        H184   1.083       .  S
C173        C174   1.380       .  A
C173        H185   1.082       .  S
C174        H186   1.083       .  S
C175        C176   1.370       .  A
C175        H187   1.080       .  S
C176        H188   1.079       .  S
C177        C178   1.372       .  A
C177        H189   1.081       .  S
C178        H190   1.080       .  S
C179        C565   1.486       .  S
C180        C578   1.476       .  S
C181        C626   1.483       .  S
C182        C597   1.490       .  S
N193        C198   1.348       .  A
N193        C197   1.349       .  A
N193        H225   1.040       .  S
N194        C201   1.353       .  A
N194        C202   1.352       .  A
N195        C200   1.350       .  A
N195        C199   1.349       .  A
N195        H226   1.039       .  S
N196        C203   1.349       .  A
N196        C204   1.350       .  A
C197        C205   1.386       .  A
C197        C213   1.410       .  A
C198        C214   1.404       .  A
C198        C206   1.385       .  A
C199        C207   1.387       .  A
C199        C216   1.411       .  A
C200        C215   1.408       .  A
C200        C208   1.386       .  A
C201        C213   1.420       .  A
C201        C209   1.383       .  A
C202        C216   1.419       .  A
C202        C210   1.388       .  A
C203        C211   1.385       .  A
C203        C214   1.413       .  A
C204        C212   1.386       .  A
C204        C215   1.414       .  A
C205        C206   1.378       .  A
C205        H217   1.082       .  S
C206        H218   1.082       .  S
C207        C208   1.376       .  A
C207        H219   1.083       .  S
C208        H220   1.082       .  S
C209        C210   1.373       .  A
C209        H221   1.081       .  S
C210        H222   1.078       .  S
C211        C212   1.375       .  A
C211        H223   1.082       .  S
C212        H224   1.082       .  S
C213        C533   1.506       .  S
C214        C549   1.491       .  S
C215        C501   1.497       .  S
C216        C514   1.489       .  S
N227        C232   1.355       .  A
N227        C231   1.354       .  A
N227        H259   1.043       .  S
N228        C235   1.347       .  A
N228        C236   1.347       .  A
N229        C234   1.354       .  A
N229        C233   1.355       .  A
N229        H260   1.043       .  S
N230        C237   1.346       .  A
N230        C238   1.348       .  A
C231        C239   1.387       .  A
C231        C247   1.413       .  A
C232        C248   1.415       .  A
C232        C240   1.389       .  A
C233        C241   1.388       .  A
C233        C250   1.414       .  A
C234        C249   1.413       .  A
C234        C242   1.386       .  A
C235        C247   1.403       .  A
C235        C243   1.386       .  A
C236        C250   1.403       .  A
C236        C244   1.386       .  A
C237        C245   1.387       .  A
C237        C248   1.405       .  A
C238        C246   1.384       .  A
C238        C249   1.403       .  A
C239        C240   1.367       .  A
C239        H251   1.082       .  S
C240        H252   1.080       .  S
C241        C242   1.363       .  A
C241        H253   1.080       .  S
C242        H254   1.081       .  S
C243        C244   1.372       .  A
C243        H255   1.083       .  S
C244        H256   1.082       .  S
C245        C246   1.373       .  A
C245        H257   1.083       .  S
C246        H258   1.082       .  S
C247        C469   1.474       .  S
C248        C434   1.476       .  S
C249        C450   1.477       .  S
C250        C485   1.478       .  S
O261        C277   1.281       .  A
O261       Zn267   2.060       .  S
C262        C933   1.503       .  S
C262        O278   1.279       .  A
C262        O275   1.278       .  A
O263        C276   1.273   1_545  A
O263       Cd270   2.038       .  S
O264        C282   1.279       .  A
O264       Cd273   2.103       .  S
O265        C279   1.276       .  A
O265       Cd269   2.070       .  S
O266        C277   1.273   1_545  A
O266       Cd269   2.038       .  S
Zn267       O278   2.087       .  S
Zn267       O280   2.055       .  S
Zn267       O272   1.985   1_565  S
O268        C279   1.278       .  A
O268       Cd273   2.087       .  S
Cd269       O271   2.122       .  S
Cd269       O272   2.000       .  S
Cd270       O274   2.112       .  S
Cd270       O283   2.040       .  S
Cd270       O272   1.996       .  S
O271        C281   1.277       .  A
O272       Cd273   2.021       .  S
Cd273       O275   2.109   1_545  S
O274        C281   1.276       .  A
C276        C453   1.469       .  S
C276        O280   1.279       .  A
C277        C725   1.464       .  S
C279        C530   1.468       .  S
C281        C418   1.502       .  S
C282        C562   1.471       .  S
C282        O283   1.273       .  A
O284        C300   1.280       .  A
O284       Zn290   2.096       .  S
C285        C786   1.455       .  S
C285        O301   1.278       .  A
C285        O298   1.270       .  A
O286        C299   1.268       .  A
O286       Cd293   2.007       .  S
O287        C305   1.275       .  A
O287       Cd296   2.120       .  S
O288        C302   1.280       .  A
O288       Cd292   2.105       .  S
O289        C300   1.281       .  A
O289       Cd292   2.129       .  S
Zn290       O301   2.034       .  S
Zn290       O303   2.050       .  S
Zn290       O295   1.979       .  S
O291        C302   1.272       .  A
O291       Cd296   2.024       .  S
Cd292       O294   2.100       .  S
Cd292       O295   2.018       .  S
Cd293       O297   2.027       .  S
Cd293       O306   2.101       .  S
Cd293       O295   1.977       .  S
O294        C304   1.281       .  A
O295       Cd296   1.990       .  S
Cd296       O298   2.016       .  S
O297        C304   1.272       .  A
C299        C437   1.458       .  S
C299        O303   1.278       .  A
C300        C898   1.510       .  S
C302        C517   1.466       .  S
C304        C693   1.464       .  S
C305        C402   1.499       .  S
C305        O306   1.273       .  A
O307        C323   1.280       .  A
O307       Zn313   2.099   1_554  S
C308        C754   1.457       .  S
C308        O324   1.279       .  A
C308        O321   1.272   1_565  A
O309        C322   1.270       .  A
O309       Cd316   2.013   1_565  S
O310        C328   1.273       .  A
O310       Cd319   2.109       .  S
O311        C325   1.278       .  A
O311       Cd315   2.094       .  S
O312        C323   1.279       .  A
O312       Cd315   2.119   1_565  S
Zn313       O324   2.037       .  S
Zn313       O326   2.064       .  S
Zn313       O318   1.980   1_566  S
O314        C325   1.270       .  A
O314       Cd319   2.030   1_554  S
Cd315       O317   2.082       .  S
Cd315       O318   2.010       .  S
Cd316       O320   2.045   1_556  S
Cd316       O329   2.108       .  S
Cd316       O318   1.984   1_556  S
O317        C327   1.279       .  A
O318       Cd319   1.997   1_554  S
Cd319       O321   2.027       .  S
O320        C327   1.273       .  A
C322        C482   1.463       .  S
C322        O326   1.279       .  A
C323        C917   1.509       .  S
C325        C546   1.461       .  S
C327        C581   1.460       .  S
C328        C386   1.497       .  S
C328        O329   1.275       .  A
O330        C346   1.280       .  A
O330       Zn336   2.056       .  S
C331        C882   1.504       .  S
C331        O347   1.279       .  A
C331        O344   1.277       .  A
O332        C345   1.272       .  A
O332       Cd339   2.027       .  S
O333        C351   1.280       .  A
O333       Cd342   2.101       .  S
O334        C348   1.273       .  A
O334       Cd338   2.045   1_554  S
O335        C346   1.269       .  A
O335       Cd338   2.011       .  S
Zn336       O347   2.086   1_556  S
Zn336       O349   2.045       .  S
Zn336       O341   1.974   1_556  S
O337        C348   1.278       .  A
O337       Cd342   2.088       .  S
Cd338       O340   2.114       .  S
Cd338       O341   1.988   1_556  S
Cd339       O343   2.116       .  S
Cd339       O352   2.032   1_556  S
Cd339       O341   1.991   1_556  S
O340        C350   1.275       .  A
O341       Cd342   2.020       .  S
Cd342       O344   2.117       .  S
O343        C350   1.275       .  A
C345        C466   1.461       .  S
C345        O349   1.279       .  A
C346        C805   1.459       .  S
C348        C498   1.462       .  S
C350        C373   1.500       .  S
C351        C706   1.466       .  S
C351        O352   1.272       .  A
C353        H354   1.111       .  S
C353        C359   1.560       .  S
C353        C358   1.554       .  S
C353        C357   1.541       .  S
C355        H356   1.111       .  S
C355        C361   1.551       .  S
C355        C360   1.559       .  S
C355        C362   1.544       .  S
C357        C360   1.381       .  D
C357        C421   1.503       .  S
C358        C361   1.381       .  D
C358        C610   1.500       .  S
C359        C362   1.379       .  D
C359        C405   1.496       .  S
C360        C389   1.495       .  S
C361        C645   1.506       .  S
C362        C370   1.503       .  S
C363        C368   1.378       .  A
C363        C364   1.416       .  A
C363        O369   1.332       .  A
C364        C365   1.416       .  A
C364        H375   1.082       .  S
C365        C374   1.376       .  A
C365        C366   1.379       .  A
C366        C367   1.410       .  A
C366        O372   1.328       .  A
C367        C368   1.410       .  A
C367        H376   1.082       .  S
C368        C371   1.369       .  A
O369        C370   1.338       .  A
C370        C371   1.394       .  A
C371        H377   1.082       .  S
O372        C373   1.335       .  A
C373        C374   1.400       .  A
C374        H378   1.082       .  S
C379        C384   1.378       .  A
C379        C380   1.415       .  A
C379        O385   1.330       .  A
C380        C381   1.414       .  A
C380        H391   1.082       .  S
C381        C390   1.372       .  A
C381        C382   1.379       .  A
C382        C383   1.407       .  A
C382        O388   1.325       .  A
C383        C384   1.408       .  A
C383        H392   1.082       .  S
C384        C387   1.367       .  A
O385        C386   1.339       .  A
C386        C387   1.394       .  A
C387        H393   1.082       .  S
O388        C389   1.332       .  A
C389        C390   1.397       .  A
C390        H394   1.083       .  S
C395        C400   1.379       .  A
C395        C396   1.414       .  A
C395        O401   1.331       .  A
C396        C397   1.414       .  A
C396        H407   1.082       .  S
C397        C406   1.372       .  A
C397        C398   1.379       .  A
C398        C399   1.409       .  A
C398        O404   1.327       .  A
C399        C400   1.410       .  A
C399        H408   1.082       .  S
C400        C403   1.367       .  A
O401        C402   1.338       .  A
C402        C403   1.396       .  A
C403        H409   1.082       .  S
O404        C405   1.334       .  A
C405        C406   1.396       .  A
C406        H410   1.082       .  S
C411        C416   1.378       .  A
C411        C412   1.415       .  A
C411        O417   1.330       .  A
C412        C413   1.415       .  A
C412        H423   1.082       .  S
C413        C422   1.376       .  A
C413        C414   1.378       .  A
C414        C415   1.412       .  A
C414        O420   1.327       .  A
C415        C416   1.412       .  A
C415        H424   1.082       .  S
C416        C419   1.372       .  A
O417        C418   1.338       .  A
C418        C419   1.398       .  A
C419        H425   1.082       .  S
O420        C421   1.336       .  A
C421        C422   1.398       .  A
C422        H426   1.082       .  S
C427        C432   1.381       .  A
C427        C428   1.397       .  A
C427        O433   1.316       .  A
C428        C429   1.398       .  A
C428        H439   1.083       .  S
C429        C438   1.350       .  A
C429        C430   1.382       .  A
C430        C431   1.399       .  A
C430        O436   1.319       .  A
C431        C432   1.400       .  A
C431        H440   1.082       .  S
C432        C435   1.353       .  A
O433        C434   1.329       .  A
C434        C435   1.391       .  A
C435        H441   1.083       .  S
O436        C437   1.328       .  A
C437        C438   1.390       .  A
C438        H442   1.083       .  S
C443        C448   1.382       .  A
C443        C444   1.398       .  A
C443        O449   1.315       .  A
C444        C445   1.398       .  A
C444        H455   1.082       .  S
C445        C454   1.353       .  A
C445        C446   1.379       .  A
C446        C447   1.404       .  A
C446        O452   1.322       .  A
C447        C448   1.406       .  A
C447        H456   1.082       .  S
C448        C451   1.362       .  A
O449        C450   1.328       .  A
C450        C451   1.394       .  A
C451        H457   1.083       .  S
O452        C453   1.332       .  A
C453        C454   1.391       .  A
C454        H458   1.083   1_565  S
C459        C464   1.381       .  A
C459        C460   1.400       .  A
C459        O465   1.319       .  A
C460        C461   1.402       .  A
C460        H471   1.082       .  S
C461        C470   1.357       .  A
C461        C462   1.382       .  A
C462        C463   1.397       .  A
C462        O468   1.315       .  A
C463        C464   1.397       .  A
C463        H472   1.082       .  S
C464        C467   1.352       .  A
O465        C466   1.329       .  A
C466        C467   1.390       .  A
C467        H473   1.083       .  S
O468        C469   1.328       .  A
C469        C470   1.391       .  A
C470        H474   1.083       .  S
C475        C480   1.381       .  A
C475        C476   1.405       .  A
C475        O481   1.323       .  A
C476        C477   1.405       .  A
C476        H487   1.082       .  S
C477        C486   1.360       .  A
C477        C478   1.380       .  A
C478        C479   1.394       .  A
C478        O484   1.313       .  A
C479        C480   1.395       .  A
C479        H488   1.083       .  S
C480        C483   1.348       .  A
O481        C482   1.332       .  A
C482        C483   1.389       .  A
C483        H489   1.083       .  S
O484        C485   1.327       .  A
C485        C486   1.394       .  A
C486        H490   1.083       .  S
C491        C496   1.380       .  A
C491        C492   1.400       .  A
C491        O497   1.315       .  A
C492        C493   1.399       .  A
C492        H503   1.082       .  S
C493        C502   1.356       .  A
C493        C494   1.375       .  A
C494        C495   1.404       .  A
C494        O500   1.316       .  A
C495        C496   1.403       .  A
C495        H504   1.082       .  S
C496        C499   1.363       .  A
O497        C498   1.329       .  A
C498        C499   1.392       .  A
C499        H505   1.083       .  S
O500        C501   1.335       .  A
C501        C502   1.399       .  A
C502        H506   1.080       .  S
C507        C512   1.380       .  A
C507        C508   1.399       .  A
C507        O513   1.318       .  A
C508        C509   1.400       .  A
C508        H519   1.083       .  S
C509        C518   1.351       .  A
C509        C510   1.381       .  A
C510        C511   1.402       .  A
C510        O516   1.323       .  A
C511        C512   1.404       .  A
C511        H520   1.082       .  S
C512        C515   1.356       .  A
O513        C514   1.329       .  A
C514        C515   1.395       .  A
C515        H521   1.083       .  S
O516        C517   1.330       .  A
C517        C518   1.391       .  A
C518        H522   1.083       .  S
C523        C528   1.380       .  A
C523        C524   1.401       .  A
C523        O529   1.318       .  A
C524        C525   1.401       .  A
C524        H535   1.082       .  S
C525        C534   1.356       .  A
C525        C526   1.375       .  A
C526        C527   1.407       .  A
C526        O532   1.321       .  A
C527        C528   1.407       .  A
C527        H536   1.082       .  S
C528        C531   1.364       .  A
O529        C530   1.330       .  A
C530        C531   1.392       .  A
C531        H537   1.082       .  S
O532        C533   1.337       .  A
C533        C534   1.399       .  A
C534        H538   1.080       .  S
C539        C544   1.380       .  A
C539        C540   1.398       .  A
C539        O545   1.312       .  A
C540        C541   1.396       .  A
C540        H551   1.082       .  S
C541        C550   1.354       .  A
C541        C542   1.376       .  A
C542        C543   1.406       .  A
C542        O548   1.319       .  A
C543        C544   1.405       .  A
C543        H552   1.082       .  S
C544        C547   1.366       .  A
O545        C546   1.328       .  A
C546        C547   1.393       .  A
C547        H553   1.083       .  S
O548        C549   1.335       .  A
C549        C550   1.395       .  A
C550        H554   1.082       .  S
C555        C560   1.380       .  A
C555        C556   1.405       .  A
C555        O561   1.324       .  A
C556        C557   1.406       .  A
C556        H567   1.082       .  S
C557        C566   1.359       .  A
C557        C558   1.380       .  A
C558        C559   1.397       .  A
C558        O564   1.317       .  A
C559        C560   1.399       .  A
C559        H568   1.082       .  S
C560        C563   1.352       .  A
O561        C562   1.332       .  A
C562        C563   1.390       .  A
C563        H569   1.083       .  S
O564        C565   1.328       .  A
C565        C566   1.397       .  A
C566        H570   1.083       .  S
C571        C576   1.380       .  A
C571        C572   1.399       .  A
C571        O577   1.311       .  A
C572        C573   1.397       .  A
C572        H583   1.082       .  S
C573        C582   1.359       .  A
C573        C574   1.381       .  A
C574        C575   1.402       .  A
C574        O580   1.314       .  A
C575        C576   1.400       .  A
C575        H584   1.082       .  S
C576        C579   1.362       .  A
O577        C578   1.329       .  A
C578        C579   1.391       .  A
C579        H585   1.082       .  S
O580        C581   1.330       .  A
C581        C582   1.388       .  A
C582        H586   1.082       .  S
C587        C592   1.379       .  A
C587        C588   1.406       .  A
C587        O593   1.324       .  A
C588        C589   1.407       .  A
C588        H599   1.082       .  S
C589        C598   1.361       .  A
C589        C590   1.379       .  A
C590        C591   1.399       .  A
C590        O596   1.317       .  A
C591        C592   1.399       .  A
C591        H600   1.082       .  S
C592        C595   1.353       .  A
O593        C594   1.333       .  A
C594        C595   1.392       .  A
C595        H601   1.083       .  S
O596        C597   1.329       .  A
C597        C598   1.397       .  A
C598        H602   1.079       .  S
C603        C608   1.379       .  A
C603        C604   1.413       .  A
C603        O609   1.328       .  A
C604        C605   1.413       .  A
C604        H615   1.082       .  S
C605        C614   1.373       .  A
C605        C606   1.379       .  A
C606        C607   1.412       .  A
C606        O612   1.328       .  A
C607        C608   1.411       .  A
C607        H616   1.082       .  S
C608        C611   1.371       .  A
O609        C610   1.336       .  A
C610        C611   1.395       .  A
C611        H617   1.082       .  S
O612        C613   1.336       .  A
C613        C614   1.398       .  A
C614        H618   1.082       .  S
C619        C624   1.380       .  A
C619        C620   1.397       .  A
C619        O625   1.318       .  A
C620        C621   1.399       .  A
C620        H631   1.082       .  S
C621        C630   1.350       .  A
C621        C622   1.381       .  A
C622        C623   1.400       .  A
C622        O628   1.321       .  A
C623        C624   1.402       .  A
C623        H632   1.082       .  S
C624        C627   1.351       .  A
O625        C626   1.329       .  A
C626        C627   1.393       .  A
C627        H633   1.079       .  S
O628        C629   1.330       .  A
C629        C630   1.390       .  A
C630        H634   1.083       .  S
C635        C640   1.378       .  A
C635        C636   1.415       .  A
C635        O641   1.330       .  A
C636        C637   1.414       .  A
C636        H647   1.082       .  S
C637        C646   1.374       .  A
C637        C638   1.378       .  A
C638        C639   1.413       .  A
C638        O644   1.328       .  A
C639        C640   1.413       .  A
C639        H648   1.082       .  S
C640        C643   1.374       .  A
O641        C642   1.338       .  A
C642        C643   1.398       .  A
C643        H649   1.082       .  S
O644        C645   1.336       .  A
C645        C646   1.398       .  A
C646        H650   1.082       .  S
C651        C656   1.381       .  A
C651        C652   1.398       .  A
C651        O657   1.316       .  A
C652        C653   1.398       .  A
C652        H663   1.082       .  S
C653        C662   1.352       .  A
C653        C654   1.380       .  A
C654        C655   1.404       .  A
C654        O660   1.322       .  A
C655        C656   1.405       .  A
C655        H664   1.082       .  S
C656        C659   1.360       .  A
O657        C658   1.329       .  A
C658        C659   1.394       .  A
C659        H665   1.083       .  S
O660        C661   1.332       .  A
C661        C662   1.390       .  A
C662        H666   1.083       .  S
C667        C672   1.376       .  A
C667        C668   1.402       .  A
C667        O673   1.315       .  A
C668        C669   1.401       .  A
C668        H679   1.082       .  S
C669        C678   1.361       .  A
C669        C670   1.380       .  A
C670        C671   1.401       .  A
C670        O676   1.314       .  A
C671        C672   1.400       .  A
C671        H680   1.082       .  S
C672        C675   1.357       .  A
O673        C674   1.333       .  A
C674        C675   1.399       .  A
C675        H681   1.081       .  S
O676        C677   1.330       .  A
C677        C678   1.390       .  A
C678        H682   1.083       .  S
C683        C688   1.380       .  A
C683        C684   1.398       .  A
C683        O689   1.315       .  A
C684        C685   1.399       .  A
C684        H695   1.083       .  S
C685        C694   1.352       .  A
C685        C686   1.381       .  A
C686        C687   1.401       .  A
C686        O692   1.320       .  A
C687        C688   1.402       .  A
C687        H696   1.082       .  S
C688        C691   1.357       .  A
O689        C690   1.329       .  A
C690        C691   1.393       .  A
C691        H697   1.083       .  S
O692        C693   1.330       .  A
C693        C694   1.391       .  A
C694        H698   1.083       .  S
C699        C704   1.381       .  A
C699        C700   1.402       .  A
C699        O705   1.321       .  A
C700        C701   1.403       .  A
C700        H711   1.082       .  S
C701        C710   1.356       .  A
C701        C702   1.375       .  A
C702        C703   1.400       .  A
C702        O708   1.316       .  A
C703        C704   1.401       .  A
C703        H712   1.082       .  S
C704        C707   1.354       .  A
O705        C706   1.331       .  A
C706        C707   1.391       .  A
C707        H713   1.083       .  S
O708        C709   1.333       .  A
C709        C710   1.401       .  A
C710        H714   1.078       .  S
C715        C720   1.380       .  A
C715        C716   1.406       .  A
C715        O721   1.317       .  A
C716        C717   1.404       .  A
C716        H727   1.082       .  S
C717        C726   1.368       .  A
C717        C718   1.380       .  A
C718        C719   1.398       .  A
C718        O724   1.311       .  A
C719        C720   1.395       .  A
C719        H728   1.082       .  S
C720        C723   1.357       .  A
O721        C722   1.331       .  A
C722        C723   1.388       .  A
C723        H729   1.083       .  S
O724        C725   1.328       .  A
C725        C726   1.393       .  A
C726        H730   1.082       .  S
C731        C736   1.380       .  A
C731        C732   1.399       .  A
C731        O737   1.312       .  A
C732        C733   1.397       .  A
C732        H743   1.082   1_455  S
C733        C742   1.358       .  A
C733        C734   1.381       .  A
C734        C735   1.404       .  A
C734        O740   1.316       .  A
C735        C736   1.401       .  A
C735        H744   1.082       .  S
C736        C739   1.365       .  A
O737        C738   1.329       .  A
C738        C739   1.390       .  A
C739        H745   1.082       .  S
O740        C741   1.330       .  A
C741        C742   1.389       .  A
C742        H746   1.082       .  S
C747        C752   1.381       .  A
C747        C748   1.398       .  A
C747        O753   1.317       .  A
C748        C749   1.399       .  A
C748        H759   1.082       .  S
C749        C758   1.353       .  A
C749        C750   1.382       .  A
C750        C751   1.398       .  A
C750        O756   1.316       .  A
C751        C752   1.398       .  A
C751        H760   1.082   1_565  S
C752        C755   1.353       .  A
O753        C754   1.327       .  A
C754        C755   1.390       .  A
C755        H761   1.083   1_565  S
O756        C757   1.328       .  A
C757        C758   1.389       .  A
C758        H762   1.083       .  S
C763        C768   1.383       .  A
C763        C764   1.397       .  A
C763        O769   1.316       .  A
C764        C765   1.398       .  A
C764        H775   1.082   1_455  S
C765        C774   1.351       .  A
C765        C766   1.381       .  A
C766        C767   1.400       .  A
C766        O772   1.321       .  A
C767        C768   1.402       .  A
C767        H776   1.082       .  S
C768        C771   1.356       .  A
O769        C770   1.327       .  A
C770        C771   1.390       .  A
C771        H777   1.083       .  S
O772        C773   1.330       .  A
C773        C774   1.390       .  A
C774        H778   1.083   1_455  S
C779        C784   1.382       .  A
C779        C780   1.397       .  A
C779        O785   1.317       .  A
C780        C781   1.398       .  A
C780        H791   1.082       .  S
C781        C790   1.352       .  A
C781        C782   1.382       .  A
C782        C783   1.396       .  A
C782        O788   1.315       .  A
C783        C784   1.397       .  A
C783        H792   1.082       .  S
C784        C787   1.350       .  A
O785        C786   1.327       .  A
C786        C787   1.390       .  A
C787        H793   1.083       .  S
O788        C789   1.327       .  A
C789        C790   1.389       .  A
C790        H794   1.083       .  S
C795        C800   1.381       .  A
C795        C796   1.405       .  A
C795        O801   1.315       .  A
C796        C797   1.401       .  A
C796        H807   1.082       .  S
C797        C806   1.366       .  A
C797        C798   1.380       .  A
C798        C799   1.398       .  A
C798        O804   1.309       .  A
C799        C800   1.395       .  A
C799        H808   1.083       .  S
C800        C803   1.358       .  A
O801        C802   1.331       .  A
C802        C803   1.388       .  A
C803        H809   1.083       .  S
O804        C805   1.328       .  A
C805        C806   1.390       .  A
C806        H810   1.082       .  S
C811        C816   1.383       .  A
C811        C812   1.393       .  A
C811        O817   1.313       .  A
C812        C813   1.393       .  A
C812        H823   1.083       .  S
C813        C822   1.346       .  A
C813        C814   1.380       .  A
C814        C815   1.403       .  A
C814        O820   1.322       .  A
C815        C816   1.405       .  A
C815        H824   1.082       .  S
C816        C819   1.359       .  A
O817        C818   1.325       .  A
C818        C819   1.392       .  A
C819        H825   1.083       .  S
O820        C821   1.331       .  A
C821        C822   1.387       .  A
C822        H826   1.083   1_455  S
C827        C832   1.382       .  A
C827        C828   1.393       .  A
C827        O833   1.312       .  A
C828        C829   1.394       .  A
C828        H839   1.083       .  S
C829        C838   1.346       .  A
C829        C830   1.381       .  A
C830        C831   1.402       .  A
C830        O836   1.320       .  A
C831        C832   1.403       .  A
C831        H840   1.082       .  S
C832        C835   1.357       .  A
O833        C834   1.326       .  A
C834        C835   1.392       .  A
C835        H841   1.083       .  S
O836        C837   1.330       .  A
C837        C838   1.389       .  A
C838        H842   1.083   1_455  S
C843        C848   1.375       .  A
C843        C844   1.414       .  A
C843        O849   1.329       .  A
C844        C845   1.414       .  A
C844        H855   1.082       .  S
C845        C854   1.373       .  A
C845        C846   1.378       .  A
C846        C847   1.417       .  A
C846        O852   1.333       .  A
C847        C848   1.417       .  A
C847        H856   1.082       .  S
C848        C851   1.377       .  A
O849        C850   1.339       .  A
C850        C851   1.402       .  A
C851        H857   1.081       .  S
O852        C853   1.339       .  A
C853        C854   1.399       .  A
C854        H858   1.082       .  S
C859        C864   1.378       .  A
C859        C860   1.417       .  A
C859        O865   1.331       .  A
C860        C861   1.416       .  A
C860        H871   1.082       .  S
C861        C870   1.377       .  A
C861        C862   1.376       .  A
C862        C863   1.409       .  A
C862        O868   1.325       .  A
C863        C864   1.409       .  A
C863        H872   1.082       .  S
C864        C867   1.369       .  A
O865        C866   1.339       .  A
C866        C867   1.396       .  A
C867        H873   1.082       .  S
O868        C869   1.335       .  A
C869        C870   1.403       .  A
C870        H874   1.082       .  S
C875        C880   1.378       .  A
C875        C876   1.414       .  A
C875        O881   1.331       .  A
C876        C877   1.414       .  A
C876        H887   1.082       .  S
C877        C886   1.371       .  A
C877        C878   1.377       .  A
C878        C879   1.415       .  A
C878        O884   1.332       .  A
C879        C880   1.415       .  A
C879        H888   1.082       .  S
C880        C883   1.375       .  A
O881        C882   1.338       .  A
C882        C883   1.398       .  A
C883        H889   1.082       .  S
O884        C885   1.339       .  A
C885        C886   1.401       .  A
C886        H890   1.082       .  S
C891        C896   1.378       .  A
C891        C892   1.418       .  A
C891        O897   1.334       .  A
C892        C893   1.418       .  A
C892        H903   1.082       .  S
C893        C902   1.379       .  A
C893        C894   1.377       .  A
C894        C895   1.414       .  A
C894        O900   1.330       .  A
C895        C896   1.414       .  A
C895        H904   1.082       .  S
C896        C899   1.375       .  A
O897        C898   1.341       .  A
C898        C899   1.399       .  A
C899        H905   1.082       .  S
O900        C901   1.339       .  A
C901        C902   1.401       .  A
C902        H906   1.082       .  S
C907        C912   1.377       .  A
C907        C908   1.413       .  A
C907        O913   1.329       .  A
C908        C909   1.413       .  A
C908        H919   1.082       .  S
C909        C918   1.373       .  A
C909        C910   1.378       .  A
C910        C911   1.418       .  A
C910        O916   1.334       .  A
C911        C912   1.418       .  A
C911        H920   1.082       .  S
C912        C915   1.377       .  A
O913        C914   1.338       .  A
C914        C915   1.401       .  A
C915        H921   1.082       .  S
O916        C917   1.340       .  A
C917        C918   1.398       .  A
C918        H922   1.082       .  S
C923        C928   1.375       .  A
C923        C924   1.413       .  A
C923        O929   1.328       .  A
C924        C925   1.413       .  A
C924        H935   1.082       .  S
C925        C934   1.372       .  A
C925        C926   1.378       .  A
C926        C927   1.415       .  A
C926        O932   1.331       .  A
C927        C928   1.415       .  A
C927        H936   1.082       .  S
C928        C931   1.374       .  A
O929        C930   1.338       .  A
C930        C931   1.403       .  A
C931        H937   1.081       .  S
O932        C933   1.338       .  A
C933        C934   1.398       .  A
C934        H938   1.082       .  S
