geometry optimzed in LAMMPS
_audit_creation_date              2020-11-30 
_audit_creation_method            'lammps2cif' 
_symmetry_space_group_name_H-M    'P1' 
_symmetry_Int_Tables_number       1 
_symmetry_cell_setting            triclinic 
loop_ 
_symmetry_equiv_pos_as_xyz 
  x,y,z 
_cell_length_a                    25.74110043 
_cell_length_b                    25.193947211049238 
_cell_length_c                    41.62464293850335 
_cell_angle_alpha                 89.26946125310079 
_cell_angle_beta                  90.55752370398676 
_cell_angle_gamma                 90.04409501416761 
loop_ 
_atom_site_label 
_atom_site_type_symbol 
_atom_site_fract_x 
_atom_site_fract_y 
_atom_site_fract_z 
_atom_site_charge 
C1          C  0.49724540  0.23722483  0.38977745     0.88000
C2          C  0.45284165  0.27707111  0.39400005    -0.52200
C3          C  0.45852890  0.32232254  0.37588485     0.11000
C4          C  0.50802404  0.32332495  0.35576825     0.21900
C5          C  0.49925826  0.22731612  0.35332046    -0.52900
C6          C  0.50483910  0.27315738  0.33546569     0.11100
C7          C  0.54702432  0.26817932  0.39769951    -0.52500
C8          C  0.55310228  0.31318726  0.37963957     0.11600
H9          H  0.42034570  0.26982206  0.40987517     0.16100
H10         H  0.51118735  0.36033667  0.34123639     0.01900
H11         H  0.49657764  0.18807797  0.34300625     0.16500
H12         H  0.57513627  0.25544681  0.41584882     0.16200
C13         C  0.26468455  0.46781510  0.39332738     0.88000
C14         C  0.30526037  0.51245663  0.39511981    -0.52200
C15         C  0.34624025  0.50573877  0.37474349     0.11000
C16         C  0.34179602  0.45525489  0.35458603     0.21900
C17         C  0.24795893  0.46557262  0.35804241    -0.52900
C18         C  0.28825699  0.45948452  0.33748856     0.11100
C19         C  0.29493648  0.41644527  0.39967597    -0.52500
C20         C  0.33594759  0.40994386  0.37967259     0.11600
H21         H  0.30114074  0.54601359  0.41094256     0.17500
H22         H  0.37465269  0.44963702  0.33804149     0.01900
H23         H  0.20783190  0.46920307  0.34996058     0.16500
H24         H  0.28560665  0.38838434  0.41880896     0.16200
C25         C  0.72581068  0.47487865  0.38439840     0.88000
C26         C  0.69170890  0.42481744  0.38634737    -0.52200
C27         C  0.65257245  0.42447848  0.36384122     0.11000
C28         C  0.65170401  0.47365280  0.34182269     0.21900
C29         C  0.74526987  0.47739838  0.34973056    -0.52900
C30         C  0.70655023  0.47601433  0.32719280     0.11100
C31         C  0.68785705  0.52139845  0.38729796    -0.52500
C32         C  0.64831623  0.52033812  0.36508474     0.11600
H33         H  0.69815690  0.39307010  0.40379431     0.16100
H34         H  0.61910299  0.47366930  0.32423164     0.01900
H35         H  0.78617420  0.47859675  0.34354998     0.16500
H36         H  0.69168685  0.55138825  0.40564588     0.16200
C37         C  0.49307099  0.70185609  0.39568472     0.88000
C38         C  0.54100614  0.66802677  0.40349114    -0.52200
C39         C  0.54208916  0.62110095  0.38760462     0.11000
C40         C  0.49369671  0.61151396  0.36625867     0.21900
C41         C  0.49218917  0.70759129  0.35873497    -0.52900
C42         C  0.49253514  0.65967193  0.34336387     0.11100
C43         C  0.44667216  0.66631283  0.40380947    -0.52500
C44         C  0.44630973  0.61903821  0.38823767     0.11600
H45         H  0.57244121  0.68103884  0.41913241     0.16100
H46         H  0.49444403  0.57292920  0.35381921     0.01900
H47         H  0.49094438  0.74561903  0.34621118     0.16500
H48         H  0.41606429  0.67804150  0.42005676     0.16200
C49         C  0.50367972  0.22353934  0.18799342     0.88000
C50         C  0.54710528  0.26520077  0.18536552    -0.52200
C51         C  0.54112909  0.30710248  0.20571805     0.11000
C52         C  0.49240748  0.30242908  0.22667095     0.21900
C53         C  0.50286446  0.20652755  0.22339985    -0.52900
C54         C  0.49736464  0.24778808  0.24396583     0.11100
C55         C  0.45309959  0.25413809  0.18238760    -0.52500
C56         C  0.44719130  0.29601579  0.20231811     0.11600
H57         H  0.57931369  0.26115096  0.16898612     0.16100
H58         H  0.48725095  0.33620301  0.24304373     0.01900
H59         H  0.50667850  0.16554190  0.23151480     0.16500
H60         H  0.42496892  0.24436227  0.16373708     0.16200
C61         C  0.27646704  0.45911503  0.19219147     0.88000
C62         C  0.31567306  0.41381534  0.18814656    -0.52200
C63         C  0.36017895  0.42029367  0.20594870     0.11000
C64         C  0.36108164  0.47122929  0.22558968     0.21900
C65         C  0.26723218  0.46183498  0.22864996    -0.52900
C66         C  0.31223731  0.46805369  0.24615765     0.11100
C67         C  0.30647118  0.50996480  0.18362757    -0.52500
C68         C  0.35068269  0.51673379  0.20137758     0.11600
H69         H  0.30859099  0.38025103  0.17262708     0.16100
H70         H  0.39740462  0.47494504  0.23990860     0.01900
H71         H  0.22895803  0.45917046  0.23922816     0.16500
H72         H  0.29367585  0.53829657  0.16531623     0.16200
C73         C  0.73273354  0.45772248  0.18342350     0.88000
C74         C  0.69957951  0.50668221  0.17546897    -0.52200
C75         C  0.65343401  0.50768150  0.19126710     0.11000
C76         C  0.64401737  0.45817694  0.21267522     0.21900
C77         C  0.73793925  0.45683231  0.22033526    -0.52900
C78         C  0.69094240  0.45713954  0.23561655     0.11100
C79         C  0.69810926  0.41018657  0.17531691    -0.52500
C80         C  0.65167466  0.40970413  0.19085048     0.11600
H81         H  0.71245391  0.53886356  0.15983979     0.16100
H82         H  0.60618530  0.45881180  0.22508382     0.01900
H83         H  0.77506024  0.45567482  0.23290593     0.16500
H84         H  0.70989215  0.37884418  0.15924351     0.16200
C85         C  0.50768758  0.69385544  0.19412330     0.88000
C86         C  0.45880003  0.65884177  0.19300044    -0.52200
C87         C  0.45916338  0.61917485  0.21576131     0.11000
C88         C  0.50782837  0.61876280  0.23724668     0.21900
C89         C  0.51094163  0.71431935  0.22863267    -0.52900
C90         C  0.51024762  0.67505030  0.25149075     0.11100
C91         C  0.55326074  0.65519727  0.19097896    -0.52500
C92         C  0.55299974  0.61512109  0.21347933     0.11600
H93         H  0.42727638  0.66507318  0.17586574     0.16100
H94         H  0.50836915  0.58570787  0.25507633     0.01900
H95         H  0.51203105  0.75621249  0.23448292     0.16500
H96         H  0.58204035  0.65896766  0.17222278     0.16200
O97         O  0.06173847  0.49983042  0.01023064    -0.72900
O98         O  0.95624807  0.49927408  0.07472533    -0.72900
O99         O  0.06168822  0.49746202  0.07558352    -0.73000
O100        O  0.95666624  0.50131195  0.00939270    -0.73000
O101        O  0.95543234  0.41270038  0.00902477    -0.72900
O102        O  0.06025942  0.40886468  0.07517198    -0.72900
O103        O  0.95478091  0.41067897  0.07434811    -0.72900
O104        O  0.06050135  0.41122335  0.00979104    -0.73000
Ni105      Ni  0.00915139  0.50263629  0.04254039     1.25400
Ni106      Ni  0.00771006  0.40769561  0.04211057     1.25400
C107        C  0.07787886  0.45569058  0.99918749     0.89300
C108        C  0.93819104  0.45494172  0.08503834     0.89200
C109        C  0.07808541  0.45250885  0.08620441     0.89300
C110        C  0.93928863  0.45756720  0.99819208     0.89400
O111        O  0.54609442  0.01213844  0.06820525    -0.72900
O112        O  0.54153471  0.90404217  0.00471807    -0.72900
O113        O  0.54074401  0.01140747  0.00328697    -0.73000
O114        O  0.54654968  0.90474664  0.06959604    -0.73000
O115        O  0.45985542  0.90432444  0.07166578    -0.72900
O116        O  0.45404544  0.01086514  0.00534523    -0.72900
O117        O  0.45482137  0.90339937  0.00676096    -0.72900
O118        O  0.45939384  0.01181116  0.07034825    -0.73000
Ni119      Ni  0.54683988  0.95812812  0.03636644     1.25400
Ni120      Ni  0.45388625  0.95760231  0.03860121     1.25400
C121        C  0.50357213  0.02951931  0.07967100     0.89300
C122        C  0.49751298  0.88596761  0.99548912     0.89200
C123        C  0.49646317  0.02853817  0.99354222     0.89300
C124        C  0.50409075  0.88703741  0.08136393     0.89400
C125        C  0.50601499  0.84656510  0.10585513    -0.17000
C126        C  0.50693388  0.81207035  0.12615885     0.07100
C127        C  0.50742299  0.77133604  0.14971142     0.09000
C128        C  0.50757890  0.73639996  0.16974799    -0.17800
C129        C  0.78239165  0.45727514  0.16611325    -0.17000
C130        C  0.82069097  0.45658416  0.14953989     0.07100
C131        C  0.86322653  0.45562382  0.12819444     0.09000
C132        C  0.89802883  0.45499689  0.10890719    -0.17800
C133        C  0.61894607  0.55481299  0.18955658    -0.14900
C134        C  0.58898394  0.56897525  0.21433692    -0.30100
H135        H  0.62011418  0.57911167  0.16788485     0.14100
H136        H  0.58919223  0.54490032  0.23613435     0.14700
C137        C  0.11753812  0.45100217  0.11096663    -0.17000
C138        C  0.15133822  0.45026914  0.13132276     0.07100
C139        C  0.19231409  0.45075673  0.15427484     0.09000
C140        C  0.22903409  0.45307501  0.17251540    -0.17800
C141        C  0.38529604  0.56324717  0.19694033    -0.14900
C142        C  0.41868504  0.57820579  0.22009993    -0.30100
H143        H  0.38393922  0.58437654  0.17406728     0.14100
H144        H  0.41897414  0.55776621  0.24314874     0.14700
C145        C  0.50567701  0.06974351  0.10358840    -0.17000
C146        C  0.50801038  0.10366912  0.12362192     0.07100
C147        C  0.50985708  0.14394309  0.14671727     0.09000
C148        C  0.50907694  0.17929110  0.16585833    -0.17800
C149        C  0.40191410  0.33198670  0.19909056    -0.14900
C150        C  0.40450341  0.38290724  0.20790582    -0.30100
H151        H  0.36659012  0.31638729  0.18835457     0.14100
H152        H  0.44042803  0.39836014  0.21789106     0.14700
C153        C  0.57687189  0.35346608  0.20835468    -0.14900
C154        C  0.61488731  0.36445933  0.18726969    -0.30100
H155        H  0.57115677  0.37903300  0.22874364     0.14100
H156        H  0.62100466  0.33848204  0.16709570     0.14700
C157        C  0.49180480  0.65155376  0.30817049    -0.14900
C158        C  0.50902026  0.68706239  0.28639678    -0.30100
H159        H  0.47815238  0.61308119  0.30042756     0.14100
H160        H  0.52197617  0.72592815  0.29411106     0.14700
C161        C  0.49250058  0.75197558  0.41351223    -0.17000
C162        C  0.49157929  0.78926236  0.43148938     0.07100
C163        C  0.49010405  0.82953094  0.45492000     0.09000
C164        C  0.48866923  0.86224420  0.47589073    -0.17800
C165        C  0.71793672  0.47427042  0.29228975    -0.14900
C166        C  0.68290953  0.45679678  0.27077512    -0.30100
H167        H  0.75602266  0.48715422  0.28435622     0.14100
H168        H  0.64514273  0.44328359  0.27868089     0.14700
C169        C  0.76821231  0.47555948  0.40818002    -0.17000
C170        C  0.80421846  0.47591926  0.42689183     0.07100
C171        C  0.84681389  0.47597764  0.44846547     0.09000
C172        C  0.88260477  0.47581370  0.46733433    -0.17800
C173        C  0.60298981  0.55677990  0.36416481    -0.14900
C174        C  0.58826741  0.58608204  0.38925728    -0.30100
H175        H  0.57989272  0.55761429  0.34221581     0.14100
H176        H  0.61145282  0.58641836  0.41114717     0.14700
C177        C  0.27961864  0.45772136  0.30223359    -0.14900
C178        C  0.31712713  0.47114692  0.28156769    -0.30100
H179        H  0.24150906  0.44615846  0.29341763     0.14100
H180        H  0.35446299  0.48429681  0.29074222     0.14700
C181        C  0.10551421  0.47945700  0.47153774    -0.17000
C182        C  0.14157602  0.47957878  0.45338870     0.07100
C183        C  0.18440933  0.47790687  0.43269910     0.09000
C184        C  0.22097205  0.47454892  0.41507819    -0.17800
C185        C  0.39145695  0.54226817  0.37142965    -0.14900
C186        C  0.40234063  0.58126547  0.39223980    -0.30100
H187        H  0.41626418  0.53625499  0.35091638     0.14100
H188        H  0.37721916  0.58747968  0.41259793     0.14700
C189        C  0.50743470  0.27796880  0.29994931    -0.14900
C190        C  0.49614334  0.23901581  0.27935426    -0.30100
H191        H  0.51873264  0.31658539  0.29064030     0.14100
H192        H  0.48654793  0.19963896  0.28833911     0.14700
C193        C  0.48509808  0.08149994  0.47544874    -0.17000
C194        C  0.48613850  0.11415211  0.45397259     0.07100
C195        C  0.48844437  0.15348939  0.42946142     0.09000
C196        C  0.49159490  0.18938146  0.41006982    -0.17800
C197        C  0.42142534  0.36717300  0.37399154    -0.14900
C198        C  0.37177697  0.36423355  0.38337640    -0.30100
H199        H  0.43598991  0.40378478  0.36347824     0.14100
H200        H  0.35707185  0.32830705  0.39470364     0.14700
C201        C  0.61254258  0.38290629  0.36011704    -0.14900
C202        C  0.59856443  0.34880010  0.38351734    -0.30100
H203        H  0.59201995  0.38298019  0.33727796     0.14100
H204        H  0.61978377  0.34756177  0.40617031     0.14700
C205        C  0.50837137  0.23685147  0.89321710     0.88000
C206        C  0.46557207  0.27831774  0.89830461    -0.52200
C207        C  0.47322276  0.32447856  0.88122583     0.11000
C208        C  0.52305575  0.32450974  0.86145236     0.21900
C209        C  0.51024114  0.22918983  0.85674620    -0.52900
C210        C  0.51790995  0.27562289  0.84011413     0.11100
C211        C  0.55946183  0.26476868  0.90202514    -0.52500
C212        C  0.56701707  0.31119685  0.88562400     0.11600
H213        H  0.43253434  0.27121136  0.91376275     0.16100
H214        H  0.52862460  0.36148817  0.84714887     0.01900
H215        H  0.50578884  0.19088794  0.84539243     0.16500
H216        H  0.58695310  0.24944227  0.91980405     0.16200
C217        C  0.27006512  0.46054866  0.89159372     0.88000
C218        C  0.30422228  0.50862343  0.89907049    -0.52200
C219        C  0.35015469  0.50953191  0.88302735     0.11000
C220        C  0.35773813  0.46098125  0.86119746     0.21900
C221        C  0.26350510  0.46111767  0.85482980    -0.52900
C222        C  0.30988879  0.46133999  0.83864386     0.11100
C223        C  0.30395682  0.41219493  0.89921468    -0.52500
C224        C  0.35014063  0.41213824  0.88355953     0.11600
H225        H  0.29272877  0.53971455  0.91540591     0.17500
H226        H  0.39454868  0.46050840  0.84780697     0.01900
H227        H  0.22562825  0.46115423  0.84323849     0.16500
H228        H  0.29243039  0.38061467  0.91569723     0.16200
C229        C  0.74457447  0.46778822  0.89018835     0.88000
C230        C  0.70438096  0.42435122  0.89787260    -0.52200
C231        C  0.65875451  0.43092149  0.88128396     0.11000
C232        C  0.65788108  0.47933729  0.85884266     0.21900
C233        C  0.75090453  0.46636888  0.85336072    -0.52900
C234        C  0.70467895  0.47225927  0.83694952     0.11100
C235        C  0.71679965  0.52043593  0.89692713    -0.52500
C236        C  0.67137566  0.52670315  0.88026677     0.11600
H237        H  0.71120154  0.39222983  0.91502676     0.16100
H238        H  0.62050629  0.48254661  0.84551188     0.01900
H239        H  0.78806409  0.46108927  0.84175856     0.16500
H240        H  0.73136974  0.54973502  0.91369956     0.16200
C241        C  0.50258433  0.69153034  0.88727720     0.88000
C242        C  0.55401661  0.66067710  0.88892660    -0.52200
C243        C  0.55649232  0.62108329  0.86688498     0.11000
C244        C  0.50771369  0.61616583  0.84583091     0.21900
C245        C  0.49739463  0.71124400  0.85232494    -0.52900
C246        C  0.50075346  0.67162039  0.83042630     0.11100
C247        C  0.45994025  0.64951164  0.89135133    -0.52500
C248        C  0.46268648  0.60961747  0.86941310     0.11600
H249        H  0.58539630  0.66994892  0.90554103     0.16100
H250        H  0.50942287  0.58284782  0.82874993     0.01900
H251        H  0.49238587  0.75271096  0.84551899     0.16500
H252        H  0.43074554  0.65181336  0.90987493     0.16200
C253        C  0.48887383  0.24547641  0.69227447     0.88000
C254        C  0.53761594  0.28088714  0.69009498    -0.52200
C255        C  0.53953991  0.31934281  0.71312328     0.11000
C256        C  0.49315061  0.31827065  0.73579711     0.21900
C257        C  0.48935443  0.22315737  0.72673100    -0.52900
C258        C  0.49240294  0.26126822  0.74961662     0.11100
C259        C  0.44276177  0.28429304  0.69089966    -0.52500
C260        C  0.44511120  0.32283572  0.71390499     0.11600
H261        H  0.56681197  0.27644202  0.67169590     0.16100
H262        H  0.49446363  0.34992835  0.75406850     0.01900
H263        H  0.48863104  0.18098550  0.73250394     0.16500
H264        H  0.41190525  0.28120379  0.67311667     0.16200
C265        C  0.24902690  0.46894238  0.69117994     0.88000
C266        C  0.28322962  0.42060466  0.68534322    -0.52200
C267        C  0.32734277  0.41878039  0.70375269     0.11000
C268        C  0.33285085  0.46681875  0.72659698     0.21900
C269        C  0.23797073  0.46785202  0.72713479    -0.52900
C270        C  0.28156386  0.46673309  0.74616332     0.11100
C271        C  0.28414316  0.51691941  0.68584301    -0.52500
C272        C  0.32847150  0.51615001  0.70396059     0.11600
H273        H  0.27344800  0.39037897  0.66788535     0.16100
H274        H  0.36845827  0.46680626  0.74155096     0.01900
H275        H  0.19887017  0.46796625  0.73674636     0.16500
H276        H  0.27514023  0.54852822  0.66866468     0.16200
C277        C  0.73558872  0.45881237  0.68820661     0.88000
C278        C  0.69511656  0.50354992  0.68675259    -0.52200
C279        C  0.65674859  0.49790526  0.70908521     0.11000
C280        C  0.66326687  0.44832964  0.73066475     0.21900
C281        C  0.75644254  0.45806716  0.72274011    -0.52900
C282        C  0.71865322  0.45324404  0.74526784     0.11100
C283        C  0.70451371  0.40743622  0.68480325    -0.52500
C284        C  0.66582447  0.40191771  0.70668029     0.11600
H285        H  0.69718582  0.53635603  0.66967915     0.16100
H286        H  0.63248690  0.44384344  0.74885078     0.01900
H287        H  0.79735405  0.46227337  0.72887249     0.16500
H288        H  0.71102833  0.37903028  0.66582945     0.16200
C289        C  0.49481872  0.68206021  0.68555197     0.88000
C290        C  0.44905723  0.64287111  0.68395258    -0.52200
C291        C  0.45618418  0.59816281  0.70271792     0.11000
C292        C  0.50858932  0.59707353  0.72058345     0.21900
C293        C  0.50215484  0.69345425  0.72150180    -0.52900
C294        C  0.50943170  0.64851801  0.73975232     0.11100
C295        C  0.54268120  0.64949961  0.67621561    -0.52500
C296        C  0.55044729  0.60505506  0.69478244     0.11600
H297        H  0.41456987  0.65036328  0.66942501     0.16100
H298        H  0.51305156  0.56102019  0.73586986     0.01900
H299        H  0.50224062  0.73313731  0.73136818     0.16500
H300        H  0.56881222  0.66126219  0.65705476     0.16200
O301        O  0.04542018  0.52157275  0.50434000    -0.72900
O302        O  0.93752383  0.51720642  0.56675278    -0.72900
O303        O  0.04234524  0.51891860  0.56931767    -0.73000
O304        O  0.94001647  0.51975464  0.50192611    -0.73000
O305        O  0.94126627  0.43110477  0.50142027    -0.72900
O306        O  0.04383763  0.43027023  0.56865094    -0.72900
O307        O  0.93900543  0.42852562  0.56627140    -0.72900
O308        O  0.04667487  0.43291414  0.50368677    -0.73000
Ni309      Ni  0.99131598  0.52255842  0.53554258     1.25400
Ni310      Ni  0.99279185  0.42750280  0.53492282     1.25400
C311        C  0.06389702  0.47794355  0.49403433     0.89300
C312        C  0.92084663  0.47218491  0.57673770     0.89200
C313        C  0.05941807  0.47442625  0.58014753     0.89300
C314        C  0.92335073  0.47555211  0.49105902     0.89400
O315        O  0.52583671  0.02527373  0.57784359    -0.72900
O316        O  0.52976244  0.91850206  0.51286024    -0.72900
O317        O  0.52799242  0.02580222  0.51270698    -0.73000
O318        O  0.52739729  0.91678985  0.57811960    -0.73000
O319        O  0.44071448  0.91556948  0.57655157    -0.72900
O320        O  0.44127873  0.02426954  0.51096502    -0.72900
O321        O  0.44305790  0.91690886  0.51126395    -0.72900
O322        O  0.43915522  0.02418678  0.57617638    -0.73000
Ni323      Ni  0.53082175  0.97162865  0.54555629     1.25400
Ni324      Ni  0.43794029  0.97016191  0.54379480     1.25400
C325        C  0.48195542  0.04301729  0.58716581     0.89300
C326        C  0.48707847  0.90079438  0.50113407     0.89200
C327        C  0.48475059  0.04231022  0.50087791     0.89300
C328        C  0.48396119  0.89771925  0.58766683     0.89400
C329        C  0.48377895  0.85429904  0.61069216    -0.17000
C330        C  0.48402108  0.81619185  0.62874649     0.07100
C331        C  0.48530359  0.77023601  0.64890742     0.09000
C332        C  0.48807491  0.73053275  0.66556906    -0.17800
C333        C  0.77614846  0.46439829  0.66411721    -0.17000
C334        C  0.80921734  0.46732863  0.64400944     0.07100
C335        C  0.84781586  0.46939736  0.62041447     0.09000
C336        C  0.88100996  0.47066794  0.60034171    -0.17800
C337        C  0.61199517  0.53434797  0.71294668    -0.14900
C338        C  0.59632548  0.57003585  0.69049978    -0.30100
H339        H  0.59102127  0.53013265  0.73523149     0.14100
H340        H  0.61778615  0.57446795  0.66833388     0.14700
C341        C  0.09674946  0.47397173  0.60588148    -0.17000
C342        C  0.12850325  0.47310029  0.62730333     0.07100
C343        C  0.16722584  0.47163118  0.65144351     0.09000
C344        C  0.20258333  0.47027066  0.67057596    -0.17800
C345        C  0.36698705  0.55974162  0.70029155    -0.14900
C346        C  0.41769043  0.55453799  0.70741968    -0.30100
H347        H  0.35287366  0.59680261  0.68993718     0.14100
H348        H  0.43187974  0.51745472  0.71770643     0.14700
C349        C  0.48099757  0.08595981  0.60984864    -0.17000
C350        C  0.48181244  0.12314804  0.62802409     0.07100
C351        C  0.48399621  0.16692477  0.64921265     0.09000
C352        C  0.48626491  0.20335164  0.66790667    -0.17800
C353        C  0.40730791  0.36699403  0.71823383    -0.14900
C354        C  0.36467810  0.37421389  0.69989227    -0.30100
H355        H  0.41569761  0.39441833  0.73742467     0.14100
H356        H  0.35599714  0.34624652  0.68100724     0.14700
C357        C  0.57995603  0.36088514  0.71656776    -0.14900
C358        C  0.62778247  0.35771620  0.70424344    -0.30100
H359        H  0.56887586  0.39554786  0.73000558     0.14100
H360        H  0.63857849  0.32323574  0.69043899     0.14700
C361        C  0.49810444  0.68150722  0.79528789    -0.14900
C362        C  0.51800235  0.64648035  0.77476133    -0.30100
H363        H  0.47827149  0.71682156  0.78636069     0.14100
H364        H  0.53886884  0.61196282  0.78372787     0.14700
C365        C  0.49968670  0.73414105  0.91070493    -0.17000
C366        C  0.49776309  0.76915684  0.93001177     0.07100
C367        C  0.49637009  0.81008295  0.95264308     0.09000
C368        C  0.49618791  0.84493868  0.97209809    -0.17800
C369        C  0.69638048  0.47142380  0.80160269    -0.14900
C370        C  0.73119304  0.45473666  0.78020936    -0.30100
H371        H  0.65848157  0.48448977  0.79312366     0.14100
H372        H  0.76995732  0.44334380  0.78808873     0.14700
C373        C  0.79288276  0.46214025  0.90908068    -0.17000
C374        C  0.82917311  0.46001615  0.92766174     0.07100
C375        C  0.86867625  0.45916065  0.95154874     0.09000
C376        C  0.90104044  0.45871150  0.97275581    -0.17800
C377        C  0.63629123  0.57256680  0.88457482    -0.14900
C378        C  0.60068044  0.58504843  0.86199924    -0.30100
H379        H  0.63762226  0.59351121  0.90719138     0.14100
H380        H  0.60100739  0.56509555  0.83909914     0.14700
C381        C  0.31615597  0.46209198  0.80290759    -0.14900
C382        C  0.27623251  0.46571245  0.78188098    -0.30100
H383        H  0.35549064  0.45987251  0.79402617     0.14100
H384        H  0.23698858  0.46801317  0.79094413     0.14700
C385        C  0.11585003  0.45622350  0.97403503    -0.17000
C386        C  0.14750987  0.45737484  0.95280325     0.07100
C387        C  0.18596327  0.45898990  0.92872835     0.09000
C388        C  0.22162339  0.46008052  0.91007955    -0.17800
C389        C  0.38691954  0.55453688  0.88687961    -0.14900
C390        C  0.42689363  0.56346590  0.86703411    -0.30100
H391        H  0.37916323  0.58199841  0.90607551     0.14100
H392        H  0.43373355  0.53677552  0.84735764     0.14700
C393        C  0.51919119  0.28170863  0.80482592    -0.14900
C394        C  0.49596788  0.24830911  0.78434252    -0.30100
H395        H  0.53744881  0.31759842  0.79575030     0.14100
H396        H  0.47870711  0.21155540  0.79297019     0.14700
C397        C  0.49447177  0.06909646  0.96914950    -0.17000
C398        C  0.49434539  0.10475677  0.94963033     0.07100
C399        C  0.49647867  0.14849655  0.92827664     0.09000
C400        C  0.50053558  0.18756839  0.91155010    -0.17800
C401        C  0.43719143  0.37037635  0.87958447    -0.14900
C402        C  0.38701863  0.36732696  0.88784267    -0.30100
H403        H  0.45262587  0.40707220  0.86973582     0.14100
H404        H  0.37175893  0.33065414  0.89792011     0.14700
C405        C  0.61247186  0.39657945  0.88331498    -0.14900
C406        C  0.61382772  0.34455769  0.89030164    -0.30100
H407        H  0.57605422  0.41497543  0.87611413     0.14100
H408        H  0.64971148  0.32583348  0.89835674     0.14700
loop_ 
_geom_bond_atom_site_label_1 
_geom_bond_atom_site_label_2 
_geom_bond_distance 
_geom_bond_site_symmetry_2 
_ccdc_geom_bond_type 
C1            C2   1.535       .  S
C1            C7   1.535       .  S
C1            C5   1.542       .  S
C1          C196   1.471       .  S
C2            H9   1.085       .  S
C2            C3   1.367       .  D
C3            C4   1.531       .  S
C3          C197   1.481       .  S
C4            C8   1.540       .  S
C4            C6   1.531       .  S
C4           H10   1.108       .  S
C5           H11   1.085       .  S
C5            C6   1.374       .  D
C6          C189   1.484       .  S
C7           H12   1.087       .  S
C7            C8   1.362       .  D
C8          C202   1.483       .  S
C13          C14   1.536       .  S
C13          C19   1.530       .  S
C13          C17   1.528       .  S
C13         C184   1.462       .  S
C14          H21   1.084       .  S
C14          C15   1.372       .  D
C15          C16   1.536       .  S
C15         C185   1.490       .  S
C16          C20   1.546       .  S
C16          C18   1.548       .  S
C16          H22   1.106       .  S
C17          H23   1.087       .  S
C17          C18   1.361       .  D
C18         C177   1.483       .  S
C19          H24   1.087       .  S
C19          C20   1.362       .  D
C20         C198   1.482       .  S
C25          C26   1.538       .  S
C25          C31   1.533       .  S
C25          C29   1.533       .  S
C25         C169   1.467       .  S
C26          H33   1.085       .  S
C26          C27   1.369       .  D
C27          C28   1.532       .  S
C27         C201   1.477       .  S
C28          C32   1.536       .  S
C28          C30   1.544       .  S
C28          H34   1.108       .  S
C29          H35   1.087       .  S
C29          C30   1.363       .  D
C30         C165   1.486       .  S
C31          H36   1.085       .  S
C31          C32   1.369       .  D
C32         C173   1.485       .  S
C37          C38   1.530       .  S
C37          C43   1.530       .  S
C37          C41   1.543       .  S
C37         C161   1.473       .  S
C38          H45   1.087       .  S
C38          C39   1.362       .  D
C39          C40   1.544       .  S
C39         C174   1.481       .  S
C40          C44   1.545       .  S
C40          C42   1.533       .  S
C40          H46   1.107       .  S
C41          H47   1.085       .  S
C41          C42   1.374       .  D
C42         C157   1.482       .  S
C43          H48   1.087       .  S
C43          C44   1.363       .  D
C44         C186   1.487       .  S
C49          C50   1.536       .  S
C49          C55   1.528       .  S
C49          C53   1.530       .  S
C49         C148   1.463       .  S
C50          H57   1.084       .  S
C50          C51   1.372       .  D
C51          C52   1.538       .  S
C51         C153   1.491       .  S
C52          C56   1.546       .  S
C52          C54   1.550       .  S
C52          H58   1.106       .  S
C53          H59   1.087       .  S
C53          C54   1.363       .  D
C54         C190   1.487       .  S
C55          H60   1.087       .  S
C55          C56   1.360       .  D
C56         C149   1.481       .  S
C61          C62   1.536       .  S
C61          C67   1.535       .  S
C61          C65   1.541       .  S
C61         C140   1.472       .  S
C62          H69   1.085       .  S
C62          C63   1.369       .  D
C63          C64   1.530       .  S
C63         C150   1.481       .  S
C64          C68   1.539       .  S
C64          C66   1.529       .  S
C64          H70   1.108       .  S
C65          H71   1.085       .  S
C65          C66   1.373       .  D
C66         C178   1.481       .  S
C67          H72   1.087       .  S
C67          C68   1.363       .  D
C68         C141   1.482       .  S
C73          C74   1.531       .  S
C73          C79   1.531       .  S
C73          C77   1.541       .  S
C73         C129   1.474       .  S
C74          H81   1.087       .  S
C74          C75   1.364       .  D
C75          C76   1.544       .  S
C75         C133   1.484       .  S
C76          C80   1.545       .  S
C76          C78   1.532       .  S
C76          H82   1.107       .  S
C77          H83   1.085       .  S
C77          C78   1.372       .  D
C78         C166   1.480       .  S
C79          H84   1.087       .  S
C79          C80   1.364       .  D
C80         C154   1.489       .  S
C85          C86   1.537       .  S
C85          C91   1.533       .  S
C85          C89   1.534       .  S
C85         C128   1.466       .  S
C86          H93   1.085       .  S
C86          C87   1.368       .  D
C87          C88   1.532       .  S
C87         C142   1.477       .  S
C88          C92   1.538       .  S
C88          C90   1.545       .  S
C88          H94   1.108       .  S
C89          H95   1.086       .  S
C89          C90   1.364       .  D
C90         C158   1.489       .  S
C91          H96   1.085       .  S
C91          C92   1.368       .  D
C92         C134   1.487       .  S
O97        Ni105   1.919       .  S
O97         C107   1.280   1_554  A
O98        Ni105   1.921   1_655  S
O98         C108   1.280       .  A
O99        Ni105   1.923       .  S
O99         C109   1.281       .  A
O100       Ni105   1.922   1_655  S
O100        C110   1.281   1_554  A
O101       Ni106   1.919   1_655  S
O101        C110   1.280   1_554  A
O102       Ni106   1.921       .  S
O102        C109   1.280       .  A
O103       Ni106   1.924   1_655  S
O103        C108   1.281       .  A
O104       Ni106   1.923       .  S
O104        C107   1.281   1_554  A
Ni105      Ni106   2.392       .  S
C107        C385   1.439       .  S
C108        C132   1.441       .  S
C109        C137   1.440       .  S
C110        C376   1.439       .  S
O111       Ni119   1.912   1_545  S
O111        C121   1.278       .  A
O112       Ni119   1.911       .  S
O112        C122   1.278   1_554  A
O113       Ni119   1.916   1_545  S
O113        C123   1.280   1_554  A
O114       Ni119   1.917       .  S
O114        C124   1.280       .  A
O115       Ni120   1.915       .  S
O115        C124   1.279       .  A
O116       Ni120   1.916   1_545  S
O116        C123   1.279   1_554  A
O117       Ni120   1.915       .  S
O117        C122   1.279   1_554  A
O118       Ni120   1.917   1_545  S
O118        C121   1.280       .  A
Ni119      Ni120   2.395       .  S
C121        C145   1.430       .  S
C122        C368   1.429       .  S
C123        C397   1.432       .  S
C124        C125   1.433       .  S
C125        C126   1.205       .  T
C126        C127   1.410       .  S
C127        C128   1.205       .  T
C129        C130   1.209       .  T
C130        C131   1.417       .  S
C131        C132   1.209       .  T
C133        H135   1.084       .  S
C133        C134   1.346       .  D
C134        H136   1.085       .  S
C137        C138   1.209       .  T
C138        C139   1.416       .  S
C139        C140   1.208       .  T
C141        H143   1.085       .  S
C141        C142   1.343       .  D
C142        H144   1.083       .  S
C145        C146   1.203       .  T
C146        C147   1.407       .  S
C147        C148   1.203       .  T
C149        H151   1.085       .  S
C149        C150   1.340       .  D
C150        H152   1.084       .  S
C153        H155   1.083       .  S
C153        C154   1.347       .  D
C154        H156   1.084       .  S
C157        H159   1.083       .  S
C157        C158   1.343       .  D
C158        H160   1.086       .  S
C161        C162   1.209       .  T
C162        C163   1.417       .  S
C163        C164   1.209       .  T
C164        C326   1.441       .  S
C165        H167   1.086       .  S
C165        C166   1.343       .  D
C166        H168   1.083       .  S
C169        C170   1.205       .  T
C170        C171   1.410       .  S
C171        C172   1.205       .  T
C172        C314   1.434       .  S
C173        H175   1.085       .  S
C173        C174   1.344       .  D
C174        H176   1.084       .  S
C177        H179   1.085       .  S
C177        C178   1.340       .  D
C178        H180   1.084       .  S
C181        C311   1.430       .  S
C181        C182   1.202       .  T
C182        C183   1.407       .  S
C183        C184   1.203       .  T
C185        H187   1.083       .  S
C185        C186   1.346       .  D
C186        H188   1.084       .  S
C189        H191   1.083       .  S
C189        C190   1.341       .  D
C190        H192   1.085       .  S
C193        C327   1.438       .  S
C193        C194   1.208       .  T
C194        C195   1.415       .  S
C195        C196   1.208       .  T
C197        H199   1.084       .  S
C197        C198   1.342       .  D
C198        H200   1.085       .  S
C201        H203   1.083       .  S
C201        C202   1.342       .  D
C202        H204   1.085       .  S
C205        C206   1.537       .  S
C205        C211   1.534       .  S
C205        C209   1.534       .  S
C205        C400   1.464       .  S
C206        H213   1.085       .  S
C206        C207   1.370       .  D
C207        C208   1.531       .  S
C207        C401   1.483       .  S
C208        C212   1.541       .  S
C208        C210   1.533       .  S
C208        H214   1.109       .  S
C209        H215   1.085       .  S
C209        C210   1.367       .  D
C210        C393   1.476       .  S
C211        H216   1.086       .  S
C211        C212   1.362       .  D
C212        C406   1.481       .  S
C217        C218   1.530       .  S
C217        C223   1.527       .  S
C217        C221   1.538       .  S
C217        C388   1.472       .  S
C218        H225   1.087       .  S
C218        C219   1.364       .  D
C219        C220   1.547       .  S
C219        C389   1.486       .  S
C220        C224   1.547       .  S
C220        C222   1.541       .  S
C220        H226   1.104       .  S
C221        H227   1.084       .  S
C221        C222   1.377       .  D
C222        C381   1.498       .  S
C223        H228   1.087       .  S
C223        C224   1.361       .  D
C224        C402   1.483       .  S
C229        C230   1.538       .  S
C229        C235   1.538       .  S
C229        C233   1.544       .  S
C229        C373   1.471       .  S
C230        H237   1.086       .  S
C230        C231   1.366       .  D
C231        C232   1.527       .  S
C231        C405   1.474       .  S
C232        C236   1.536       .  S
C232        C234   1.529       .  S
C232        H238   1.108       .  S
C233        H239   1.085       .  S
C233        C234   1.373       .  D
C234        C369   1.485       .  S
C235        H240   1.087       .  S
C235        C236   1.362       .  D
C236        C377   1.481       .  S
C241        C242   1.536       .  S
C241        C247   1.534       .  S
C241        C245   1.536       .  S
C241        C365   1.462       .  S
C242        H249   1.085       .  S
C242        C243   1.366       .  D
C243        C244   1.530       .  S
C243        C378   1.473       .  S
C244        C248   1.534       .  S
C244        C246   1.540       .  S
C244        H250   1.108       .  S
C245        H251   1.086       .  S
C245        C246   1.364       .  D
C246        C361   1.481       .  S
C247        H252   1.084       .  S
C247        C248   1.369       .  D
C248        C390   1.487       .  S
C253        C254   1.542       .  S
C253        C259   1.539       .  S
C253        C257   1.534       .  S
C253        C352   1.478       .  S
C254        H261   1.085       .  S
C254        C255   1.372       .  D
C255        C256   1.529       .  S
C255        C357   1.482       .  S
C256        C260   1.532       .  S
C256        C258   1.540       .  S
C256        H262   1.109       .  S
C257        H263   1.087       .  S
C257        C258   1.363       .  D
C258        C394   1.480       .  S
C259        H264   1.084       .  S
C259        C260   1.373       .  D
C260        C353   1.492       .  S
C265        C266   1.527       .  S
C265        C271   1.524       .  S
C265        C269   1.526       .  S
C265        C344   1.465       .  S
C266        H273   1.087       .  S
C266        C267   1.364       .  D
C267        C268   1.554       .  S
C267        C354   1.490       .  S
C268        C272   1.554       .  S
C268        C270   1.558       .  S
C268        H274   1.103       .  S
C269        H275   1.087       .  S
C269        C270   1.367       .  D
C270        C382   1.494       .  S
C271        H276   1.087       .  S
C271        C272   1.362       .  D
C272        C345   1.486       .  S
C277        C278   1.536       .  S
C277        C283   1.528       .  S
C277        C281   1.529       .  S
C277        C333   1.460       .  S
C278        H285   1.085       .  S
C278        C279   1.369       .  D
C279        C280   1.537       .  S
C279        C337   1.485       .  S
C280        C284   1.549       .  S
C280        C282   1.550       .  S
C280        H286   1.106       .  S
C281        H287   1.087       .  S
C281        C282   1.362       .  D
C282        C370   1.488       .  S
C283        H288   1.087       .  S
C283        C284   1.362       .  D
C284        C358   1.486       .  S
C289        C290   1.538       .  S
C289        C295   1.537       .  S
C289        C293   1.537       .  S
C289        C332   1.478       .  S
C290        H297   1.085       .  S
C290        C291   1.374       .  D
C291        C292   1.534       .  S
C291        C346   1.492       .  S
C292        C296   1.540       .  S
C292        C294   1.531       .  S
C292        H298   1.108       .  S
C293        H299   1.086       .  S
C293        C294   1.367       .  D
C294        C362   1.472       .  S
C295        H300   1.086       .  S
C295        C296   1.366       .  D
C296        C338   1.488       .  S
O301       Ni309   1.914   1_455  S
O301        C311   1.279       .  A
O302       Ni309   1.911       .  S
O302        C312   1.278       .  A
O303       Ni309   1.916   1_455  S
O303        C313   1.279       .  A
O304       Ni309   1.917       .  S
O304        C314   1.280       .  A
O305       Ni310   1.917       .  S
O305        C314   1.280       .  A
O306       Ni310   1.915   1_455  S
O306        C313   1.279       .  A
O307       Ni310   1.912       .  S
O307        C312   1.279       .  A
O308       Ni310   1.914   1_455  S
O308        C311   1.279       .  A
Ni309      Ni310   2.396       .  S
C312        C336   1.427       .  S
C313        C341   1.432       .  S
O315       Ni323   1.923   1_545  S
O315        C325   1.281       .  A
O316       Ni323   1.921       .  S
O316        C326   1.280       .  A
O317       Ni323   1.921   1_545  S
O317        C327   1.280       .  A
O318       Ni323   1.926       .  S
O318        C328   1.281       .  A
O319       Ni324   1.925       .  S
O319        C328   1.281       .  A
O320       Ni324   1.920   1_545  S
O320        C327   1.280       .  A
O321       Ni324   1.924       .  S
O321        C326   1.281       .  A
O322       Ni324   1.928   1_545  S
O322        C325   1.282       .  A
Ni323      Ni324   2.392       .  S
C325        C349   1.445       .  S
C328        C329   1.445       .  S
C329        C330   1.212       .  T
C330        C331   1.421       .  S
C331        C332   1.212       .  T
C333        C334   1.201       .  T
C334        C335   1.404       .  S
C335        C336   1.201       .  T
C337        H339   1.082       .  S
C337        C338   1.348       .  D
C338        H340   1.084       .  S
C341        C342   1.204       .  T
C342        C343   1.409       .  S
C343        C344   1.204       .  T
C345        H347   1.085       .  S
C345        C346   1.342       .  D
C346        H348   1.085       .  S
C349        C350   1.212       .  T
C350        C351   1.422       .  S
C351        C352   1.212       .  T
C353        H355   1.083       .  S
C353        C354   1.342       .  D
C354        H356   1.084       .  S
C357        H359   1.083       .  S
C357        C358   1.341       .  D
C358        H360   1.085       .  S
C361        H363   1.086       .  S
C361        C362   1.341       .  D
C362        H364   1.083       .  S
C365        C366   1.202       .  T
C366        C367   1.406       .  S
C367        C368   1.202       .  T
C369        H371   1.084       .  S
C369        C370   1.341       .  D
C370        H372   1.085       .  S
C373        C374   1.208       .  T
C374        C375   1.415       .  S
C375        C376   1.208       .  T
C377        H379   1.085       .  S
C377        C378   1.341       .  D
C378        H380   1.083       .  S
C381        H383   1.083       .  S
C381        C382   1.346       .  D
C382        H384   1.084       .  S
C385        C386   1.208       .  T
C386        C387   1.416       .  S
C387        C388   1.208       .  T
C389        H391   1.084       .  S
C389        C390   1.343       .  D
C390        H392   1.082       .  S
C393        H395   1.084       .  S
C393        C394   1.342       .  D
C394        H396   1.085       .  S
C397        C398   1.204       .  T
C398        C399   1.408       .  S
C399        C400   1.204       .  T
C401        H403   1.083       .  S
C401        C402   1.342       .  D
C402        H404   1.085       .  S
C405        H407   1.084       .  S
C405        C406   1.339       .  D
C406        H408   1.086       .  S
