geometry optimzed in LAMMPS
_audit_creation_date              2020-11-30 
_audit_creation_method            'lammps2cif' 
_symmetry_space_group_name_H-M    'P1' 
_symmetry_Int_Tables_number       1 
_symmetry_cell_setting            triclinic 
loop_ 
_symmetry_equiv_pos_as_xyz 
  x,y,z 
_cell_length_a                    28.23930276 
_cell_length_b                    27.409812659117815 
_cell_length_c                    50.834017835313496 
_cell_angle_alpha                 91.75991304597059 
_cell_angle_beta                  89.0878003842202 
_cell_angle_gamma                 122.36786224650241 
loop_ 
_atom_site_label 
_atom_site_type_symbol 
_atom_site_fract_x 
_atom_site_fract_y 
_atom_site_fract_z 
_atom_site_charge 
C1          C  0.32264800  0.21172651  0.47941534     0.79700
N2          N  0.37761528  0.22872297  0.48212763    -0.78600
C3          C  0.39343876  0.18962378  0.48185854     0.82200
N4          N  0.35417331  0.12898218  0.99255658    -0.78500
C5          C  0.29904893  0.11129889  0.99067617     0.82300
N6          N  0.28528120  0.15213258  0.99090542    -0.80200
C7          C  0.20197597  0.30211196  0.99565334     0.79700
N8          N  0.22483400  0.36051146  0.99515275    -0.78600
C9          C  0.19181612  0.38274453  0.99436856     0.82200
N10         N  0.13495833  0.34581033  0.99503334    -0.78500
C11         C  0.11112869  0.28774726  0.99582754     0.82300
N12         N  0.14511158  0.26636235  0.99684250    -0.80200
C13         C  0.32173463  0.32636113  0.03269172     0.86000
C14         C  0.32950110  0.27663650  0.02579749    -0.54200
C15         C  0.30954611  0.25101399  0.00191655     0.08900
C16         C  0.28475018  0.28607661  0.47593439     0.19900
C17         C  0.35062593  0.36834750  0.00946735    -0.54900
C18         C  0.33353233  0.34896169  0.47923311     0.09000
C19         C  0.25913344  0.30169018  0.02943265    -0.54500
C20         C  0.23851055  0.28153062  0.00474639     0.09600
H21         H  0.35229196  0.26460480  0.03834401     0.14100
H22         H  0.27262720  0.27141776  0.45514038    -0.00100
H23         H  0.38579548  0.41263170  0.01149961     0.14400
H24         H  0.23666397  0.31202362  0.04385888     0.14200
C25         C  0.99027302  0.16713226  0.03111202     0.86000
C26         C  0.99330688  0.13132994  0.00746959    -0.54200
C27         C  0.00069007  0.15826102  0.48365767     0.08900
C28         C  0.00140464  0.21434367  0.48240792     0.19900
C29         C  0.04327427  0.22709205  0.02856984    -0.54900
C30         C  0.05157747  0.25064038  0.00445810     0.09000
C31         C  0.45333561  0.18544162  0.02820790    -0.54500
C32         C  0.45212742  0.20356834  0.00378464     0.09600
H33         H  0.99088679  0.09071604  0.00933034     0.14100
H34         H  0.00143291  0.22842303  0.46213542    -0.00100
H35         H  0.07621921  0.24507334  0.04337707     0.14400
H36         H  0.41678310  0.16739070  0.04092836     0.14200
C37         C  0.17604712  0.98902672  0.02713910     0.86000
C38         C  0.19607198  0.45171283  0.02586336    -0.54200
C39         C  0.21512181  0.44469831  0.00207089     0.08900
C40         C  0.22299606  0.99505667  0.47466462     0.19900
C41         C  0.22815987  0.04803159  0.02220911    -0.54900
C42         C  0.25490157  0.05213439  0.99921106     0.09000
C43         C  0.13898665  0.97648463  0.00230340    -0.54500
C44         C  0.16169309  0.97832507  0.47461608     0.09600
H45         H  0.18254187  0.41992205  0.04114587     0.14100
H46         H  0.24044103  0.99484107  0.45496942    -0.00100
H47         H  0.24144877  0.08505125  0.03546787     0.14400
H48         H  0.09604787  0.96562587  0.00284706     0.14200
O49         O  0.44241550  0.43400654  0.23456699    -0.85800
O50         O  0.00614942  0.45776350  0.21796522    -0.82900
C51         C  0.03510500  0.94566086  0.21354450     0.97600
O52         O  0.06680996  0.97752948  0.23231466    -0.82900
O53         O  0.04740058  0.06107283  0.22334589    -0.85500
C54         C  0.01478623  0.07766911  0.21854703     1.02200
O55         O  0.51126018  0.09051978  0.23760728    -0.78300
O56         O  0.45341311  0.51599576  0.22430920    -0.78500
C57         C  0.43524988  0.46417631  0.21870696     1.02100
O58         O  0.48061643  0.44756070  0.28786241    -0.85800
O59         O  0.04010809  0.45578536  0.27189826    -0.82900
C60         C  0.03563531  0.94269615  0.29227865     0.97700
O61         O  0.05512856  0.99522668  0.28879836    -0.82900
O62         O  0.04941419  0.08740227  0.27988588    -0.85500
C63         C  0.01093170  0.07836188  0.29598126     1.02100
O64         O  0.49276586  0.05536701  0.29184712    -0.78300
O65         O  0.43165302  0.48640145  0.28043038    -0.78500
C66         C  0.44463543  0.45862949  0.29517942     1.02100
Cr67       Cr  0.51479909  0.46118176  0.25350379     1.93700
Cr68       Cr  0.04993897  0.02703952  0.25600899     1.93200
Cr69       Cr  0.48581204  0.55399568  0.25792215     1.39100
O70         O  0.97589479  0.97721060  0.25534106    -1.23600
C71         C  0.01848118  0.93378851  0.09169621    -0.18300
C72         C  0.99930396  0.92550822  0.11776573    -0.20500
C73         C  0.03688620  0.94127980  0.13882746     0.20200
C74         C  0.09440059  0.96633850  0.13362466    -0.03400
C75         C  0.11365101  0.97417161  0.10731267    -0.06500
C76         C  0.07558736  0.95763740  0.08617931     0.20500
C77         C  0.17093147  0.99781014  0.10220526     0.18600
C78         C  0.20876092  0.01501449  0.12322099    -0.17900
C79         C  0.18989700  0.00830907  0.14923609    -0.20200
C80         C  0.13276981  0.98361771  0.15469834     0.20100
C81         C  0.11346415  0.97610849  0.18083254    -0.33200
C82         C  0.05609669  0.95036043  0.18619179     0.00800
C83         C  0.01808347  0.93291583  0.16499565    -0.24500
C84         C  0.09512205  0.96417996  0.05999201    -0.29100
C85         C  0.15226607  0.98618199  0.05473038     0.06500
C86         C  0.18948050  0.00293332  0.07619253    -0.27800
H87         H  0.98851493  0.92097030  0.07585197     0.11200
H88         H  0.95501233  0.90663404  0.12145645     0.12300
H89         H  0.25303132  0.03353011  0.11952903     0.11400
H90         H  0.21996406  0.02195705  0.16509543     0.10700
H91         H  0.14299616  0.99022505  0.19697356     0.16000
H92         H  0.97381767  0.91424248  0.16886238     0.11900
H93         H  0.06535476  0.95020523  0.04406820     0.14800
H94         H  0.23340973  0.01930721  0.07252891     0.14600
C95         C  0.10884515  0.87600889  0.36110628    -0.18300
C96         C  0.12711809  0.88236468  0.38716412    -0.20500
C97         C  0.11413393  0.91186006  0.40612889     0.20200
C98         C  0.07974517  0.93223352  0.39923530    -0.03400
C99         C  0.06108572  0.92558653  0.37295867    -0.06500
C100        C  0.07711405  0.89887118  0.35356454     0.20500
C101        C  0.02925910  0.94878885  0.36580499     0.18600
C102        C  0.01345152  0.97521646  0.38508355    -0.17900
C103        C  0.03189626  0.98173547  0.41108445    -0.20200
C104        C  0.06646834  0.96195938  0.41823811     0.20100
C105        C  0.09030376  0.97391577  0.44358529    -0.33200
C106        C  0.12768256  0.95705123  0.44997231     0.00800
C107        C  0.13732207  0.92390038  0.43145541    -0.24500
C108        C  0.06426550  0.89894729  0.32684048    -0.29100
C109        C  0.03636032  0.92615454  0.31957471     0.06500
C110        C  0.01686136  0.94850117  0.33925594    -0.27800
H111        H  0.12116483  0.85493539  0.34667109     0.11200
H112        H  0.15310971  0.86597480  0.39227217     0.12300
H113        H  0.98833318  0.99256960  0.37986524     0.11400
H114        H  0.02055946  0.00386869  0.42540558     0.10700
H115        H  0.08250992  0.99927198  0.45771528     0.16000
H116        H  0.16481765  0.90925217  0.43637259     0.11900
H117        H  0.07958684  0.88205214  0.31171574     0.14800
H118        H  0.99501573  0.96927607  0.33362481     0.14600
C119        C  0.10605618  0.13178238  0.38230410    -0.18300
C120        C  0.10103415  0.13496034  0.40973511    -0.20500
C121        C  0.05195606  0.12772175  0.42100781     0.20200
C122        C  0.00784693  0.11776827  0.40441770    -0.03400
C123        C  0.01411821  0.11760936  0.37687500    -0.06500
C124        C  0.06287976  0.12327575  0.36563791     0.20500
C125        C  0.49170528  0.12487463  0.35875978     0.18600
C126        C  0.44062758  0.11674771  0.36738004    -0.17900
C127        C  0.42737488  0.11117076  0.39406221    -0.20200
C128        C  0.46565550  0.11512259  0.41251023     0.20100
C129        C  0.45441557  0.11447187  0.43931811    -0.33200
C130        C  0.99816266  0.12786998  0.45895355     0.00800
C131        C  0.04711274  0.13345852  0.44838277    -0.24500
C132        C  0.06592906  0.11722413  0.33809898    -0.29100
C133        C  0.02129545  0.10734041  0.32205156     0.06500
C134        C  0.50318130  0.12641472  0.33199513    -0.27800
H135        H  0.14376437  0.13615945  0.37413088     0.11200
H136        H  0.13536756  0.14268823  0.42213541     0.13700
H137        H  0.41040247  0.11356100  0.35341984     0.11400
H138        H  0.38759735  0.10474242  0.40031155     0.10700
H139        H  0.41608569  0.11131690  0.44570505     0.16000
H140        H  0.08275185  0.14693197  0.46109613     0.11900
H141        H  0.10044814  0.11562076  0.32950225     0.14800
H142        H  0.47208711  0.12152063  0.31805037     0.14600
C143        C  0.46334480  0.18016426  0.12961716    -0.18300
C144        C  0.47045861  0.17045528  0.15568929    -0.20500
C145        C  0.50371504  0.14836103  0.16153353     0.20200
C146        C  0.00496311  0.11769199  0.13869640    -0.03400
C147        C  0.99814317  0.12567566  0.11202810    -0.06500
C148        C  0.48846325  0.16688556  0.10891093     0.20500
C149        C  0.02690314  0.11466230  0.09208788     0.18600
C150        C  0.06225052  0.09568750  0.09903414    -0.17900
C151        C  0.06916252  0.08796312  0.12545571    -0.20200
C152        C  0.04060554  0.09871325  0.14536914     0.20100
C153        C  0.04625336  0.08970665  0.17178298    -0.33200
C154        C  0.01584251  0.09816176  0.19176568     0.00800
C155        C  0.51074167  0.13801539  0.18766179    -0.24500
C156        C  0.48190069  0.17707353  0.08282781    -0.29100
C157        C  0.98673518  0.14486174  0.05873758     0.06500
C158        C  0.02109221  0.12438214  0.06566383    -0.27800
H159        H  0.43786525  0.19778393  0.12563110     0.11200
H160        H  0.45017251  0.18049464  0.17128253     0.12300
H161        H  0.08480104  0.08712151  0.08405875     0.11400
H162        H  0.09687827  0.07354417  0.13032015     0.10700
H163        H  0.07262146  0.07354018  0.17657922     0.16000
H164        H  0.48926823  0.14587403  0.20347657     0.11900
H165        H  0.45967249  0.19838230  0.07930658     0.14800
H166        H  0.04519345  0.11832915  0.05059961     0.14600
C167        C  0.36107594  0.48051773  0.37837475    -0.18300
C168        C  0.34990674  0.46913759  0.40526706    -0.20500
C169        C  0.36487408  0.43435482  0.41790144     0.20200
C170        C  0.39234248  0.41186640  0.40338319    -0.03400
C171        C  0.40165533  0.42155161  0.37620382    -0.06500
C172        C  0.38617532  0.45618416  0.36351204     0.20500
C173        C  0.42588294  0.39578799  0.36169163     0.18600
C174        C  0.44302297  0.36302542  0.37433742    -0.17900
C175        C  0.43487018  0.35442600  0.40127015    -0.20200
C176        C  0.40860839  0.37762289  0.41579423     0.20100
C177        C  0.39516289  0.36393803  0.44212631    -0.33200
C178        C  0.36392923  0.38201254  0.45603181     0.00800
C179        C  0.35025982  0.41876304  0.44430419    -0.24500
C180        C  0.39695632  0.46630974  0.33635852    -0.29100
C181        C  0.42155328  0.44070060  0.32195413     0.06500
C182        C  0.43394790  0.40407263  0.33479052    -0.27800
H183        H  0.34922632  0.50753392  0.36911869     0.11200
H184        H  0.32907756  0.48707309  0.41611633     0.12300
H185        H  0.46273459  0.34403813  0.36337815     0.11400
H186        H  0.44775271  0.32830742  0.41061560     0.10700
H187        H  0.40462785  0.33478830  0.45122058     0.16000
H188        H  0.32524438  0.43184641  0.45507673     0.11900
H189        H  0.38809744  0.49533397  0.32676245     0.14800
H190        H  0.45296714  0.38404656  0.32404788     0.14600
C191        C  0.34033656  0.30474635  0.15271362    -0.18300
C192        C  0.32529286  0.28636005  0.12655077    -0.20500
C193        C  0.33811445  0.32667550  0.10696747     0.20200
C194        C  0.36543585  0.38583415  0.11367634    -0.03400
C195        C  0.37871791  0.40411533  0.14017183    -0.06500
C196        C  0.36709992  0.36353117  0.15973326     0.20500
C197        C  0.40427978  0.46307705  0.14700487     0.18600
C198        C  0.41640420  0.50320399  0.12745549    -0.17900
C199        C  0.40458927  0.48529514  0.10108034    -0.20200
C200        C  0.37924665  0.42668945  0.09395678     0.20100
C201        C  0.36701920  0.40816811  0.06753052    -0.33200
C202        C  0.34003669  0.34909843  0.06065186     0.00800
C203        C  0.32394307  0.30872169  0.08077412    -0.24500
C204        C  0.38348501  0.38262903  0.18582930    -0.29100
C205        C  0.41005157  0.44155589  0.19257051     0.06500
C206        C  0.41890457  0.48122677  0.17315769    -0.27800
H207        H  0.33097570  0.27303087  0.16743909     0.11200
H208        H  0.30434041  0.24066854  0.12156618     0.12300
H209        H  0.43552681  0.54846521  0.13255151     0.11400
H210        H  0.41512298  0.51725768  0.08629458     0.10700
H211        H  0.37686941  0.43964182  0.05265711     0.16000
H212        H  0.30042542  0.26281794  0.07598654     0.11900
H213        H  0.37668022  0.35199815  0.20069803     0.14800
H214        H  0.43995375  0.52695198  0.17808323     0.14600
C215        C  0.32532934  0.20953222  0.99201173     0.79700
N216        N  0.38035180  0.22604194  0.99390737    -0.78600
C217        C  0.39555363  0.18643364  0.99340276     0.82200
N218        N  0.35270490  0.13216764  0.48033080    -0.78500
C219        C  0.29757975  0.11364507  0.47785511     0.82300
N220        N  0.28317750  0.15405386  0.47788427    -0.80200
C221        C  0.20221711  0.30722796  0.48389216     0.79700
N222        N  0.22562625  0.36581111  0.48443666    -0.78600
C223        C  0.19293532  0.38858215  0.48530323     0.82200
N224        N  0.13615997  0.35195705  0.48685334    -0.78500
C225        C  0.11185557  0.29381745  0.48684375     0.82300
N226        N  0.14543976  0.27196719  0.48596647    -0.80200
C227        C  0.31294393  0.31892271  0.52484918     0.86000
C228        C  0.31980251  0.26943949  0.51599761    -0.54200
C229        C  0.30581072  0.25156482  0.49055666     0.08900
C230        C  0.28215383  0.27861150  0.98664503     0.19900
C231        C  0.34890435  0.36689271  0.50482555    -0.54900
C232        C  0.32954846  0.34226841  0.98534051     0.09000
C233        C  0.25225397  0.29826060  0.51861793    -0.54500
C234        C  0.23767175  0.28536754  0.49276497     0.09600
H235        H  0.33832407  0.25233252  0.52840189     0.14100
H236        H  0.26499927  0.25736819  0.96714177    -0.00100
H237        H  0.38454302  0.40946338  0.51003737     0.14400
H238        H  0.22682640  0.30515828  0.53271881     0.14200
C239        C  0.00159904  0.18265565  0.53033901     0.86000
C240        C  0.00084496  0.14100106  0.50866853    -0.54200
C241        C  0.99896147  0.15632627  0.98362925     0.08900
C242        C  0.00146757  0.21348192  0.98550817     0.19900
C243        C  0.05253906  0.24187219  0.52365447    -0.54900
C244        C  0.05470189  0.25784147  0.49833526     0.09000
C245        C  0.44374543  0.18921008  0.52000386    -0.54500
C246        C  0.44756065  0.20606999  0.49471670     0.09600
H247        H  0.99999728  0.10187433  0.51269467     0.14100
H248        H  0.00634981  0.23404737  0.96631493    -0.00100
H249        H  0.08849779  0.26499380  0.53676987     0.14400
H250        H  0.40530188  0.17396248  0.53097996     0.14200
C251        C  0.18654053  0.99902597  0.52168759     0.86000
C252        C  0.19883849  0.45364995  0.51920653    -0.54200
C253        C  0.21668390  0.44978912  0.49456704     0.08900
C254        C  0.22605089  0.99423510  0.98271356     0.19900
C255        C  0.23580771  0.05654052  0.51308414    -0.54900
C256        C  0.25533655  0.05617284  0.48864151     0.09000
C257        C  0.14206234  0.98063338  0.49936928    -0.54500
C258        C  0.16571932  0.97909037  0.97894265     0.09600
H259        H  0.18764675  0.42057185  0.53361981     0.14100
H260        H  0.24918042  0.99791476  0.96426912    -0.00100
H261        H  0.25281870  0.09581813  0.52520572     0.14400
H262        H  0.09914751  0.96855005  0.50252520     0.14200
O263        O  0.37981921  0.38112323  0.73190980    -0.85800
O264        O  0.02245523  0.43209867  0.71884434    -0.82900
C265        C  0.09831381  0.00918421  0.71333347     0.97600
O266        O  0.13088993  0.04491597  0.73102937    -0.82900
O267        O  0.10249990  0.12176131  0.72355690    -0.85500
C268        C  0.06523589  0.13212938  0.71889119     1.02200
O269        O  0.48775117  0.10887998  0.73587322    -0.78300
O270        O  0.39531498  0.46616799  0.72391427    -0.78500
C271        C  0.37578741  0.41471846  0.71690804     1.02100
O272        O  0.41194629  0.38809436  0.78605261    -0.85800
O273        O  0.05368531  0.43009742  0.77328102    -0.82900
C274        C  0.10421711  0.00822723  0.79157138     0.97700
O275        O  0.12016699  0.06009800  0.78861764    -0.82900
O276        O  0.10332938  0.14549393  0.78098202    -0.85500
C277        C  0.06319143  0.13303755  0.79674423     1.02100
O278        O  0.47313239  0.07928986  0.79122308    -0.78300
O279        O  0.37254394  0.43748834  0.78027958    -0.78500
C280        C  0.38144057  0.40566435  0.79439401     1.02100
Cr281      Cr  0.44874955  0.40148978  0.75233014     1.93700
Cr282      Cr  0.10982595  0.08974373  0.75605488     1.93200
Cr283      Cr  0.43009364  0.50232652  0.75746797     1.39100
O284        O  0.03689500  0.03504655  0.75590662    -1.23600
C285        C  0.05365953  0.97657743  0.59397090    -0.18300
C286        C  0.04249190  0.97812660  0.62072696    -0.20500
C287        C  0.08466994  0.99477091  0.63953453     0.20200
C288        C  0.13885908  0.01057788  0.63149331    -0.03400
C289        C  0.15005268  0.00859808  0.60444751    -0.06500
C290        C  0.10721100  0.99138579  0.58558807     0.20500
C291        C  0.20386354  0.02331687  0.59632840     0.18600
C292        C  0.24626962  0.04055403  0.61517087    -0.17900
C293        C  0.23527606  0.04298129  0.64199464    -0.20200
C294        C  0.18162266  0.02788378  0.65045514     0.20100
C295        C  0.16960509  0.02902384  0.67744634    -0.33200
C296        C  0.11502671  0.01163802  0.68544814     0.00800
C297        C  0.07324511  0.99530341  0.66628088    -0.24500
C298        C  0.11833880  0.98872526  0.55871485    -0.29100
C299        C  0.17182652  0.00272876  0.55038804     0.06500
C300        C  0.21424322  0.02015379  0.56951430    -0.27800
H301        H  0.02028014  0.96336431  0.57986805     0.11200
H302        H  0.00068947  0.96594033  0.62673242     0.12300
H303        H  0.28793441  0.05204902  0.60916586     0.11400
H304        H  0.26865802  0.05628006  0.65612348     0.10700
H305        H  0.20195559  0.04187939  0.69210693     0.16000
H306        H  0.03128845  0.98307532  0.67223403     0.11900
H307        H  0.08503796  0.97521745  0.54466275     0.14800
H308        H  0.25566359  0.03099707  0.56336189     0.14600
C309        C  0.15765129  0.92185109  0.86033071    -0.18300
C310        C  0.16504101  0.91706098  0.88708781    -0.20500
C311        C  0.14427574  0.93862482  0.90640986     0.20200
C312        C  0.11333950  0.96255500  0.89884510    -0.03400
C313        C  0.10614529  0.96766467  0.87187198    -0.06500
C314        C  0.12950839  0.94840733  0.85246366     0.20500
C315        C  0.07805606  0.99473392  0.86438709     0.18600
C316        C  0.05384868  0.01251906  0.88365438    -0.17900
C317        C  0.06074216  0.00717276  0.91036585    -0.20200
C318        C  0.09215296  0.98419903  0.91819858     0.20100
C319        C  0.10558280  0.98561092  0.94484936    -0.33200
C320        C  0.14027514  0.96608078  0.95222854     0.00800
C321        C  0.15669124  0.93970889  0.93305123    -0.24500
C322        C  0.12651378  0.95852368  0.82570953    -0.29100
C323        C  0.10204565  0.98919872  0.81855097     0.06500
C324        C  0.07661849  0.00565574  0.83785293    -0.27800
H325        H  0.17555157  0.90649759  0.84581190     0.11200
H326        H  0.18867538  0.89825539  0.89266071     0.12300
H327        H  0.03086122  0.03201870  0.87807330     0.11400
H328        H  0.04314198  0.02283645  0.92489286     0.10700
H329        H  0.09241493  0.00556156  0.95949310     0.16000
H330        H  0.18163197  0.92242584  0.93865480     0.11900
H331        H  0.14572856  0.94555032  0.81076255     0.14800
H332        H  0.05669021  0.02834883  0.83216929     0.14600
C333        C  0.13314912  0.16027670  0.88693443    -0.18300
C334        C  0.11909187  0.15369443  0.91376363    -0.20500
C335        C  0.06772106  0.14522177  0.92238491     0.20200
C336        C  0.03072460  0.14448457  0.90378796    -0.03400
C337        C  0.04622780  0.15421779  0.87704292    -0.06500
C338        C  0.09696597  0.16052332  0.86834982     0.20500
C339        C  0.47838537  0.13726607  0.86293529     0.18600
C340        C  0.42824896  0.12644650  0.87435818    -0.17900
C341        C  0.41986005  0.11896418  0.90138147    -0.20200
C342        C  0.46198331  0.12341540  0.91739171     0.20100
C343        C  0.45539371  0.12051966  0.94463009    -0.33200
C344        C  0.00307335  0.13446880  0.95745942     0.00800
C345        C  0.05381287  0.14066711  0.94931792    -0.24500
C346        C  0.10840127  0.16288679  0.84112601    -0.29100
C347        C  0.07018471  0.16067427  0.82294061     0.06500
C348        C  0.48520403  0.14081645  0.83574699    -0.27800
H349        H  0.17218815  0.16490765  0.88071442     0.11200
H350        H  0.14808874  0.15447657  0.92773156     0.13700
H351        H  0.39506851  0.12273027  0.86231563     0.11400
H352        H  0.38076500  0.11055041  0.90981392     0.10700
H353        H  0.41768022  0.11537844  0.95328081     0.16000
H354        H  0.08424965  0.14697405  0.96395069     0.11900
H355        H  0.14353380  0.16044590  0.83410416     0.14800
H356        H  0.45115527  0.13511750  0.82365762     0.14600
C357        C  0.42580482  0.16456514  0.62209456    -0.18300
C358        C  0.43308451  0.15958317  0.64882005    -0.20500
C359        C  0.47432981  0.14954988  0.65693718     0.20200
C360        C  0.03825313  0.15473614  0.63853218    -0.03400
C361        C  0.02659393  0.15753798  0.61189030    -0.06500
C362        C  0.45932560  0.15910964  0.60299356     0.20500
C363        C  0.05868400  0.15250654  0.59167729     0.18600
C364        C  0.10166725  0.14376525  0.59828903    -0.17900
C365        C  0.11308297  0.14071016  0.62468425    -0.20200
C366        C  0.08180660  0.14648835  0.64492140     0.20100
C367        C  0.09264688  0.14311956  0.67140421    -0.33200
C368        C  0.05997831  0.14694561  0.69171912     0.00800
C369        C  0.48163824  0.14399407  0.68373627    -0.24500
C370        C  0.45376556  0.16644931  0.57629773    -0.29100
C371        C  0.00567437  0.16765721  0.55865930     0.06500
C372        C  0.04808423  0.15764960  0.56529366    -0.27800
H373        H  0.39403601  0.17292273  0.61637193     0.11200
H374        H  0.40656829  0.16377592  0.66314046     0.12300
H375        H  0.12665957  0.13958911  0.58306225     0.11400
H376        H  0.14644806  0.13389585  0.62926752     0.10700
H377        H  0.12523785  0.13518380  0.67608190     0.16000
H378        H  0.45439379  0.14627137  0.69829802     0.11900
H379        H  0.42446382  0.17844151  0.57128179     0.14800
H380        H  0.07418251  0.15592228  0.54989126     0.14600
C381        C  0.33104920  0.45406425  0.88154181    -0.18300
C382        C  0.32967862  0.44974698  0.90906414    -0.20500
C383        C  0.34383175  0.41357706  0.92096813     0.20200
C384        C  0.35972330  0.38174199  0.90489529    -0.03400
C385        C  0.35886530  0.38432465  0.87724793    -0.06500
C386        C  0.34530434  0.42127191  0.86536590     0.20500
C387        C  0.37137361  0.34949999  0.86151345     0.18600
C388        C  0.38682059  0.31435337  0.87319324    -0.17900
C389        C  0.38910347  0.31293162  0.90046032    -0.20200
C390        C  0.37480475  0.34569853  0.91639986     0.20100
C391        C  0.37207104  0.34008623  0.94359962    -0.33200
C392        C  0.35196012  0.36762181  0.95953637     0.00800
C393        C  0.33948475  0.40588488  0.94841528    -0.24500
C394        C  0.34789338  0.42568581  0.83765586    -0.29100
C395        C  0.36176879  0.39169235  0.82198900     0.06500
C396        C  0.37024602  0.35160328  0.83426218    -0.27800
H397        H  0.32024242  0.48247881  0.87290041     0.11200
H398        H  0.31730647  0.47451974  0.92102603     0.12300
H399        H  0.39746607  0.28816723  0.86121661     0.11400
H400        H  0.40071482  0.28510939  0.90908358     0.10700
H401        H  0.38075036  0.30997666  0.95225178     0.16000
H402        H  0.32283560  0.42622992  0.96075366     0.11900
H403        H  0.34197070  0.45724928  0.82852521     0.14800
H404        H  0.38062407  0.32480499  0.82257604     0.14600
C405        C  0.30073666  0.26988106  0.64404112    -0.18300
C406        C  0.29465388  0.25757774  0.61699332    -0.20500
C407        C  0.31108089  0.30192633  0.59910374     0.20200
C408        C  0.33251619  0.35889052  0.60840252    -0.03400
C409        C  0.33717067  0.37099412  0.63567302    -0.06500
C410        C  0.32230836  0.32650342  0.65358064     0.20500
C411        C  0.35781751  0.42782585  0.64497368     0.18600
C412        C  0.37302723  0.47190436  0.62708757    -0.17900
C413        C  0.36906806  0.46002943  0.60002411    -0.20200
C414        C  0.34920828  0.40372049  0.59048607     0.20100
C415        C  0.34520892  0.39136944  0.56337023    -0.33200
C416        C  0.32476861  0.33471248  0.55387326     0.00800
C417        C  0.30599888  0.29008688  0.57206237    -0.24500
C418        C  0.33117911  0.33982062  0.68060994    -0.29100
C419        C  0.35395360  0.39688147  0.68985943     0.06500
C420        C  0.36501267  0.44010990  0.67196934    -0.27800
H421        H  0.28889666  0.23520792  0.65747314     0.11200
H422        H  0.27786824  0.21349542  0.61005119     0.12300
H423        H  0.38868203  0.51570958  0.63403000     0.11400
H424        H  0.38173238  0.49489889  0.58658177     0.10700
H425        H  0.35626296  0.42560114  0.54983240     0.16000
H426        H  0.28648394  0.24557480  0.56521620     0.11900
H427        H  0.32267558  0.30643081  0.69425175     0.14800
H428        H  0.38290302  0.48445717  0.67882032     0.14600
C429        C  0.32702382  0.71312408  0.48575372     0.79700
N430        N  0.38091108  0.72667116  0.48865428    -0.78600
C431        C  0.39340260  0.68502812  0.48766969     0.82200
N432        N  0.35232486  0.62646495  0.98727490    -0.78500
C433        C  0.29721808  0.60826992  0.98517812     0.82300
N434        N  0.28309725  0.64878544  0.98462939    -0.80200
C435        C  0.20184449  0.80200703  0.98921555     0.79700
N436        N  0.22593053  0.86069035  0.99049259    -0.78600
C437        C  0.19409620  0.88434571  0.99016369     0.82200
N438        N  0.13716178  0.84836986  0.98953059    -0.78500
C439        C  0.11196363  0.79007283  0.98874574     0.82300
N440        N  0.14475979  0.76724108  0.98932235    -0.80200
C441        C  0.31485629  0.81725214  0.02886215     0.86000
C442        C  0.32232100  0.76778279  0.02094136    -0.54200
C443        C  0.30609348  0.74668802  0.99606381     0.08900
C444        C  0.29022212  0.78755248  0.48148110     0.19900
C445        C  0.34788056  0.86291124  0.00741647    -0.54900
C446        C  0.33989721  0.85045913  0.48243912     0.09000
C447        C  0.25317125  0.79447576  0.02378978    -0.54500
C448        C  0.23625730  0.77885109  0.99830001     0.09600
H449        H  0.34235604  0.75272428  0.03361061     0.14100
H450        H  0.27525746  0.76965870  0.46128156    -0.00100
H451        H  0.38306027  0.90657469  0.01115621     0.14400
H452        H  0.22899362  0.80294453  0.03800059     0.14200
C453        C  0.99039647  0.67966066  0.02853234     0.86000
C454        C  0.98871933  0.63680027  0.00727391    -0.54200
C455        C  0.00227653  0.66040390  0.48647166     0.08900
C456        C  0.00468641  0.71747406  0.48703459     0.19900
C457        C  0.04534747  0.73664969  0.02333598    -0.54900
C458        C  0.05286398  0.75436483  0.99806920     0.09000
C459        C  0.45070471  0.68581080  0.02370152    -0.54500
C460        C  0.44931660  0.70127891  0.99866734     0.09600
H461        H  0.98389696  0.59584948  0.01164206     0.14100
H462        H  0.00531596  0.73417150  0.46730150    -0.00100
H463        H  0.07915988  0.75706337  0.03770506     0.14400
H464        H  0.41376362  0.66850363  0.03605162     0.14200
C465        C  0.17895214  0.49612919  0.02680100     0.86000
C466        C  0.19546544  0.94655231  0.02439522    -0.54200
C467        C  0.21722974  0.94480757  0.00046517     0.08900
C468        C  0.22104242  0.49661209  0.47640716     0.19900
C469        C  0.23118555  0.55262663  0.01935690    -0.54900
C470        C  0.25447271  0.55129136  0.99610153     0.09000
C471        C  0.13919108  0.47942117  0.00263331    -0.54500
C472        C  0.15977378  0.47987082  0.47490851     0.09600
H473        H  0.18105762  0.91175004  0.03821172     0.14100
H474        H  0.24124716  0.49890973  0.45719194    -0.00100
H475        H  0.24687851  0.59229231  0.03104927     0.14400
H476        H  0.09664508  0.46957286  0.00369620     0.14200
O477        O  0.41848966  0.89837106  0.23337166    -0.85800
O478        O  0.98376338  0.91161203  0.21776951    -0.82900
C479        C  0.05690225  0.49416274  0.21341559     0.97600
O480        O  0.08845769  0.52793137  0.23182505    -0.82900
O481        O  0.06168862  0.60613960  0.22421505    -0.85500
C482        C  0.02492111  0.61681948  0.21889045     1.02200
O483        O  0.53048590  0.62540290  0.23660056    -0.78300
O484        O  0.43237896  0.98234614  0.22433313    -0.78500
C485        C  0.41358995  0.93075985  0.21791326     1.02100
O486        O  0.45317125  0.90789786  0.28723401    -0.85800
O487        O  0.01127701  0.90625031  0.27342409    -0.82900
C488        C  0.06227187  0.49110517  0.29120627     0.97700
O489        O  0.07689838  0.54270270  0.28878947    -0.82900
O490        O  0.06247532  0.62964205  0.28101122    -0.85500
C491        C  0.02283708  0.61763532  0.29690678     1.02100
O492        O  0.51443226  0.59362615  0.29122754    -0.78300
O493        O  0.40745691  0.95007867  0.27955065    -0.78500
C494        C  0.41846563  0.92087275  0.29432985     1.02100
Cr495      Cr  0.48900102  0.92200883  0.25328465     1.93700
Cr496      Cr  0.06777299  0.57326751  0.25643758     1.93200
Cr497      Cr  0.46416049  0.01804463  0.25816028     1.39100
O498        O  0.99470935  0.51941407  0.25595782    -1.23600
C499        C  0.03344787  0.47288039  0.09232280    -0.18300
C500        C  0.01692630  0.47127175  0.11851962    -0.20500
C501        C  0.05534252  0.48646881  0.13909500     0.20200
C502        C  0.11145042  0.50537609  0.13330961    -0.03400
C503        C  0.12797887  0.50632188  0.10688410    -0.06500
C504        C  0.08864509  0.48925710  0.08628352     0.20500
C505        C  0.18345669  0.52284954  0.10117153     0.18600
C506        C  0.22264407  0.54088963  0.12166028    -0.17900
C507        C  0.20649600  0.54088617  0.14781942    -0.20200
C508        C  0.15078144  0.52229758  0.15392931     0.20100
C509        C  0.13347076  0.51946149  0.18024281    -0.33200
C510        C  0.07706717  0.49840285  0.18607921     0.00800
C511        C  0.03847508  0.48261124  0.16536120    -0.24500
C512        C  0.10468934  0.48735410  0.06011490    -0.29100
C513        C  0.15943552  0.50122292  0.05434361     0.06500
C514        C  0.19849697  0.51964729  0.07514607    -0.27800
H515        H  0.00274612  0.46017946  0.07684368     0.11200
H516        H  0.97394453  0.45758308  0.12271193     0.12300
H517        H  0.26566629  0.55429168  0.11747669     0.11400
H518        H  0.23734125  0.55437101  0.16330352     0.10700
H519        H  0.16339751  0.53228468  0.19611884     0.16000
H520        H  0.99513277  0.46781918  0.16969293     0.11900
H521        H  0.07387137  0.47340112  0.04471372     0.14800
H522        H  0.24090299  0.53075664  0.07097916     0.14600
C523        C  0.13298565  0.41465481  0.35660945    -0.18300
C524        C  0.14570897  0.41267118  0.38291032    -0.20500
C525        C  0.12728305  0.43462976  0.40318074     0.20200
C526        C  0.09370483  0.45647614  0.39711219    -0.03400
C527        C  0.08067693  0.45825125  0.37061281    -0.06500
C528        C  0.10142314  0.43838958  0.35015536     0.20500
C529        C  0.04915201  0.48246649  0.36454654     0.18600
C530        C  0.02845639  0.50185969  0.38485800    -0.17900
C531        C  0.04150913  0.50023886  0.41108824    -0.20200
C532        C  0.07532622  0.47905451  0.41740032     0.20100
C533        C  0.09356840  0.48289405  0.44338186    -0.33200
C534        C  0.13012595  0.46471311  0.44920225     0.00800
C535        C  0.14430329  0.43789100  0.42922865    -0.24500
C536        C  0.09244988  0.44521413  0.32369169    -0.29100
C537        C  0.06407226  0.47267692  0.31781612     0.06500
C538        C  0.04108837  0.48939783  0.33824854    -0.27800
H539        H  0.14908305  0.39901645  0.34128319     0.11200
H540        H  0.17145653  0.39559577  0.38733473     0.12300
H541        H  0.00346405  0.51979660  0.38040155     0.11400
H542        H  0.02645538  0.51705865  0.42637192     0.10700
H543        H  0.08233215  0.50341786  0.45864168     0.16000
H544        H  0.17085524  0.42180630  0.43368922     0.11900
H545        H  0.11018422  0.43247085  0.30789230     0.14800
H546        H  0.01861007  0.51007945  0.33358677     0.14600
C547        C  0.11332123  0.65614117  0.38335375    -0.18300
C548        C  0.10650756  0.65285148  0.41077140    -0.20500
C549        C  0.05636408  0.64207364  0.42233398     0.20200
C550        C  0.01293832  0.63507377  0.40609671    -0.03400
C551        C  0.02091742  0.64129106  0.37869074    -0.06500
C552        C  0.07083498  0.65059491  0.36709942     0.20500
C553        C  0.51083574  0.65682482  0.35889632     0.18600
C554        C  0.45955345  0.64849731  0.36734626    -0.17900
C555        C  0.44346695  0.63719165  0.39362795    -0.20200
C556        C  0.47907122  0.63548678  0.41194743     0.20100
C557        C  0.46487887  0.62848126  0.43857051    -0.33200
C558        C  0.00019035  0.63324410  0.46087511     0.00800
C559        C  0.04989642  0.64164726  0.44983798    -0.24500
C560        C  0.07572010  0.65080427  0.33945909    -0.29100
C561        C  0.03161980  0.64312438  0.32367902     0.06500
C562        C  0.52477823  0.66332209  0.33226657    -0.27800
H563        H  0.15184925  0.66313547  0.37487342     0.11200
H564        H  0.14032143  0.65840978  0.42292000     0.13700
H565        H  0.43130263  0.64950737  0.35350121     0.11400
H566        H  0.40355250  0.63064846  0.39970885     0.10700
H567        H  0.42637636  0.62501235  0.44497444     0.16000
H568        H  0.08506057  0.65311558  0.46253561     0.11900
H569        H  0.11113811  0.65170625  0.33035708     0.14800
H570        H  0.49531787  0.66181249  0.31828589     0.14600
C571        C  0.45187602  0.67129106  0.12571066    -0.18300
C572        C  0.46294009  0.66784540  0.15205730    -0.20500
C573        C  0.50649629  0.66016406  0.15869577     0.20200
C574        C  0.00820176  0.64338794  0.13777751    -0.03400
C575        C  0.00030241  0.64757570  0.11079136    -0.06500
C576        C  0.48383533  0.66658067  0.10551496     0.20500
C577        C  0.03407012  0.64186200  0.09175029     0.18600
C578        C  0.07487535  0.63109490  0.09979481    -0.17900
C579        C  0.08279745  0.62706289  0.12651898    -0.20200
C580        C  0.04986409  0.63344032  0.14560234     0.20100
C581        C  0.05731598  0.62906750  0.17235016    -0.33200
C582        C  0.02290792  0.63314744  0.19160036     0.00800
C583        C  0.51745435  0.65614433  0.18512034    -0.24500
C584        C  0.47397467  0.67191505  0.07916994    -0.29100
C585        C  0.98836942  0.66196277  0.05696528     0.06500
C586        C  0.02769652  0.64880160  0.06508268    -0.27800
H587        H  0.41831132  0.67777643  0.12112915     0.11200
H588        H  0.43749780  0.67135281  0.16725065     0.12300
H589        H  0.10104495  0.62637442  0.08545039     0.11400
H590        H  0.11479702  0.61905618  0.13226787     0.10700
H591        H  0.08863119  0.61997368  0.17802594     0.16000
H592        H  0.49137901  0.65802725  0.20047826     0.11900
H593        H  0.44295770  0.68231614  0.07530923     0.14800
H594        H  0.05518118  0.64655762  0.05063953     0.14600
C595        C  0.35398002  0.96323187  0.37808620    -0.18300
C596        C  0.34947983  0.95883836  0.40554281    -0.20500
C597        C  0.36392799  0.92411276  0.41855585     0.20200
C598        C  0.38370151  0.89409901  0.40376870    -0.03400
C599        C  0.38611354  0.89676346  0.37614607    -0.06500
C600        C  0.37183446  0.93200683  0.36315396     0.20500
C601        C  0.40273497  0.86390355  0.36154697     0.18600
C602        C  0.41873416  0.83043899  0.37443127    -0.17900
C603        C  0.41749899  0.82875852  0.40177548    -0.20200
C604        C  0.39921231  0.85962505  0.41650966     0.20100
C605        C  0.39252714  0.85331463  0.44361439    -0.33200
C606        C  0.36792389  0.87839757  0.45797882     0.00800
C607        C  0.35565072  0.91565089  0.44578672    -0.24500
C608        C  0.37746499  0.93660619  0.33560962    -0.29100
C609        C  0.39578715  0.90506953  0.32118388     0.06500
C610        C  0.40531862  0.86663997  0.33428332    -0.27800
H611        H  0.34284062  0.99048177  0.36850521     0.11200
H612        H  0.33431300  0.98225775  0.41657351     0.12300
H613        H  0.43251215  0.80582670  0.36335624     0.11400
H614        H  0.42950051  0.80217674  0.41136768     0.10700
H615        H  0.40104706  0.82395517  0.45318999     0.16000
H616        H  0.33567704  0.93408218  0.45700048     0.11900
H617        H  0.37074767  0.96687034  0.32571045     0.14800
H618        H  0.41927710  0.84194700  0.32337544     0.14600
C619        C  0.31938488  0.77920238  0.14829102    -0.18300
C620        C  0.30594157  0.76415295  0.12172689    -0.20500
C621        C  0.32201177  0.80715940  0.10312791     0.20200
C622        C  0.35092467  0.86568137  0.11125306    -0.03400
C623        C  0.36272836  0.88067464  0.13809365    -0.06500
C624        C  0.34782512  0.83734218  0.15668136     0.20500
C625        C  0.39041190  0.93915121  0.14622733     0.18600
C626        C  0.40620090  0.98211481  0.12767879    -0.17900
C627        C  0.39552078  0.96732873  0.10099374    -0.20200
C628        C  0.36810477  0.90926070  0.09257696     0.20100
C629        C  0.35758125  0.89407826  0.06582166    -0.33200
C630        C  0.32951994  0.83576035  0.05747416     0.00800
C631        C  0.30994301  0.79262819  0.07649851    -0.24500
C632        C  0.36259625  0.85310634  0.18319517    -0.29100
C633        C  0.39071116  0.91144365  0.19123244     0.06500
C634        C  0.40336871  0.95396503  0.17269780    -0.27800
H635        H  0.30752172  0.74542262  0.16225004     0.11200
H636        H  0.28374950  0.71893602  0.11566644     0.12300
H637        H  0.42732872  0.02716071  0.13379324     0.11400
H638        H  0.40877893  0.00130130  0.08695912     0.10700
H639        H  0.36995368  0.92778170  0.05182922     0.16000
H640        H  0.28574129  0.74737072  0.07047790     0.11900
H641        H  0.35314900  0.82036536  0.19739214     0.14800
H642        H  0.42595019  0.99931725  0.17859449     0.14600
C643        C  0.32269451  0.70630125  0.98551978     0.79700
N644        N  0.37777090  0.72326396  0.98777358    -0.78600
C645        C  0.39328452  0.68390034  0.98777242     0.82200
N646        N  0.35047520  0.62858843  0.48519549    -0.78500
C647        C  0.29643401  0.61372316  0.48253473     0.82300
N648        N  0.28524543  0.65649151  0.48325902    -0.80200
C649        C  0.20774668  0.80825784  0.48958943     0.79700
N650        N  0.23008008  0.86611909  0.48705221    -0.78600
C651        C  0.19671131  0.88794712  0.48618181     0.82200
N652        N  0.14002373  0.85107670  0.48892910    -0.78500
C653        C  0.11665200  0.79348730  0.49196690     0.82300
N654        N  0.15122427  0.77280202  0.49294826    -0.80200
C655        C  0.32545759  0.82826678  0.52896261     0.86000
C656        C  0.33079579  0.77718362  0.52113742    -0.54200
C657        C  0.31300454  0.75533924  0.49647081     0.08900
C658        C  0.28212413  0.77799701  0.98103095     0.19900
C659        C  0.35880374  0.87256251  0.50725928    -0.54900
C660        C  0.33030307  0.84137944  0.98239625     0.09000
C661        C  0.26405751  0.80756519  0.52419435    -0.54500
C662        C  0.24561232  0.78976485  0.49901336     0.09600
H663        H  0.35156023  0.76217791  0.53329849     0.14100
H664        H  0.26793773  0.76046363  0.96071840    -0.00100
H665        H  0.39534288  0.91553718  0.51091725     0.14400
H666        H  0.24079008  0.81726081  0.53840950     0.14200
C667        C  0.00350376  0.67995741  0.53373322     0.86000
C668        C  0.00167831  0.63994240  0.51084484    -0.54200
C669        C  0.99444037  0.65609022  0.98217611     0.08900
C670        C  0.00096834  0.71496115  0.98040708     0.19900
C671        C  0.05557746  0.73909489  0.52816262    -0.54900
C672        C  0.05880257  0.75810911  0.50335532     0.09000
C673        C  0.44203817  0.67397056  0.52386607    -0.54500
C674        C  0.44650585  0.69721870  0.50002683     0.09600
H675        H  0.99947702  0.59965491  0.51355053     0.14100
H676        H  0.00580363  0.73070194  0.96005433    -0.00100
H677        H  0.09142396  0.75954142  0.54141188     0.14400
H678        H  0.40296051  0.65406951  0.53481283     0.14200
C679        C  0.17842492  0.49524243  0.52249959     0.86000
C680        C  0.20604214  0.95683365  0.51849399    -0.54200
C681        C  0.22071826  0.95016708  0.49360163     0.08900
C682        C  0.22285538  0.49041177  0.98214298     0.19900
C683        C  0.22833031  0.55399218  0.51547168    -0.54900
C684        C  0.25127600  0.55597880  0.49165189     0.09000
C685        C  0.13681826  0.47909818  0.49919719    -0.54500
C686        C  0.16260193  0.47601584  0.97917430     0.09600
H687        H  0.19685441  0.92559867  0.53359815     0.14100
H688        H  0.24366471  0.48967492  0.96356670    -0.00100
H689        H  0.24375564  0.59208350  0.52827734     0.14400
H690        H  0.09383465  0.46758379  0.50138046     0.14200
O691        O  0.40025928  0.91868211  0.73454765    -0.85800
O692        O  0.04824936  0.97215148  0.71877809    -0.82900
C693        C  0.07265566  0.46874469  0.71359534     0.97600
O694        O  0.10529244  0.50309420  0.73162479    -0.82900
O695        O  0.08051531  0.58267586  0.72421269    -0.85500
C696        C  0.04580645  0.59674827  0.71993544     1.02200
O697        O  0.47953205  0.57253696  0.73568433    -0.78300
O698        O  0.40987040  0.00000923  0.72466824    -0.78500
C699        C  0.39352507  0.94886517  0.71859858     1.02100
O700        O  0.43855412  0.93084371  0.78725985    -0.85800
O701        O  0.08271045  0.97273948  0.77233073    -0.82900
C702        C  0.07644464  0.46623770  0.79227417     0.97700
O703        O  0.09451856  0.51849556  0.78893285    -0.82900
O704        O  0.08119661  0.60628366  0.78129943    -0.85500
C705        C  0.04136736  0.59484530  0.79707455     1.02100
O706        O  0.46111075  0.54074998  0.79081411    -0.78300
O707        O  0.39072419  0.97187078  0.78162837    -0.78500
C708        C  0.40373520  0.94282346  0.79554262     1.02100
Cr709      Cr  0.47268369  0.94548349  0.75294931     1.93700
Cr710      Cr  0.08593965  0.54928937  0.75649209     1.93200
Cr711      Cr  0.44360226  0.03857148  0.75814617     1.39100
O712        O  0.01259262  0.49632562  0.75606637    -1.23600
C713        C  0.03418273  0.44652577  0.59329853    -0.18300
C714        C  0.02019912  0.44060022  0.62003442    -0.20500
C715        C  0.06183988  0.45898527  0.63935623     0.20200
C716        C  0.11818281  0.48408058  0.63181209    -0.03400
C717        C  0.13220570  0.48932718  0.60481951    -0.06500
C718        C  0.09004485  0.47026539  0.58540649     0.20500
C719        C  0.18831321  0.51281249  0.59730570     0.18600
C720        C  0.23019510  0.53256778  0.61660352    -0.17900
C721        C  0.21645538  0.52852631  0.64333102    -0.20200
C722        C  0.16053649  0.50398124  0.65121168     0.20100
C723        C  0.14621187  0.49898346  0.67807959    -0.33200
C724        C  0.08992164  0.47293022  0.68567119     0.00800
C725        C  0.04810375  0.45305382  0.66610107    -0.24500
C726        C  0.10428970  0.47398457  0.55852682    -0.29100
C727        C  0.16014103  0.49547367  0.55089626     0.06500
C728        C  0.20161539  0.51505939  0.57062724    -0.27800
H729        H  0.00117797  0.43177036  0.57881297     0.11200
H730        H  0.97675118  0.42136569  0.62560388     0.12300
H731        H  0.27361632  0.55095901  0.61101780     0.11400
H732        H  0.24953583  0.54406788  0.65783826     0.10700
H733        H  0.17857500  0.51484973  0.69299054     0.16000
H734        H  0.00458060  0.43410992  0.67168762     0.11900
H735        H  0.07153484  0.45817277  0.54392959     0.14800
H736        H  0.24471272  0.53127037  0.56507299     0.14600
C737        C  0.13776184  0.39259788  0.86340189    -0.18300
C738        C  0.14917348  0.39396122  0.89020527    -0.20500
C739        C  0.13065188  0.41919717  0.90877597     0.20200
C740        C  0.09766922  0.44032153  0.90056953    -0.03400
C741        C  0.08596022  0.43872906  0.87355557    -0.06500
C742        C  0.10744473  0.41622040  0.85474591     0.20500
C743        C  0.05564295  0.46284115  0.86526834     0.18600
C744        C  0.03423507  0.48488088  0.88396987    -0.17900
C745        C  0.04579805  0.48638419  0.91072237    -0.20200
C746        C  0.07908755  0.46603328  0.91915419     0.20100
C747        C  0.09701630  0.47414982  0.94546699    -0.33200
C748        C  0.13349340  0.45714991  0.95326894     0.00800
C749        C  0.14734414  0.42674290  0.93512978    -0.24500
C750        C  0.10097006  0.42083680  0.82767015    -0.29100
C751        C  0.07424030  0.44862109  0.81954683     0.06500
C752        C  0.04997137  0.46747217  0.83837945    -0.27800
H753        H  0.15425591  0.37481188  0.84937692     0.11200
H754        H  0.17434061  0.37725592  0.89629797     0.12300
H755        H  0.01008632  0.50271627  0.87782265     0.11400
H756        H  0.03037067  0.50533891  0.92469785     0.10700
H757        H  0.08572668  0.49712200  0.95932879     0.16000
H758        H  0.17346336  0.41116887  0.94117920     0.11900
H759        H  0.11973038  0.40647355  0.81313024     0.14800
H760        H  0.02884304  0.48848613  0.83199971     0.14600
C761        C  0.11903036  0.63883532  0.88674541    -0.18300
C762        C  0.10784206  0.63820446  0.91378119    -0.20500
C763        C  0.05682496  0.63029772  0.92262295     0.20200
C764        C  0.01712399  0.62376194  0.90402379    -0.03400
C765        C  0.02974115  0.62769607  0.87695828    -0.06500
C766        C  0.08028077  0.63370967  0.86811045     0.20500
C767        C  0.47144574  0.61084257  0.86056773     0.18600
C768        C  0.42240739  0.60363418  0.87164634    -0.17900
C769        C  0.41550754  0.60211685  0.89884243    -0.20200
C770        C  0.45818374  0.60927023  0.91530641     0.20100
C771        C  0.45302173  0.61218265  0.94249663    -0.33200
C772        C  0.99548110  0.62669858  0.95781185     0.00800
C773        C  0.04595045  0.63236519  0.94961100    -0.24500
C774        C  0.08921256  0.63091988  0.84085747    -0.29100
C775        C  0.04881097  0.62428845  0.82278557     0.06500
C776        C  0.47661213  0.60840060  0.83340036    -0.27800
H777        H  0.15800225  0.64343944  0.88042103     0.11200
H778        H  0.13889368  0.64343925  0.92776860     0.13700
H779        H  0.38885658  0.59800802  0.85924435     0.11400
H780        H  0.37716877  0.59624977  0.90701212     0.10700
H781        H  0.41587744  0.60908027  0.95071127     0.16000
H782        H  0.07847427  0.64359413  0.96396362     0.11900
H783        H  0.12451502  0.62866857  0.83395043     0.14800
H784        H  0.44226719  0.60124925  0.82109054     0.14600
C785        C  0.43569384  0.65720185  0.62535804    -0.18300
C786        C  0.44155547  0.64817582  0.65172054    -0.20500
C787        C  0.47633947  0.62855754  0.65864026     0.20200
C788        C  0.02946786  0.63536932  0.64076410    -0.03400
C789        C  0.02112696  0.64375733  0.61439564    -0.06500
C790        C  0.46394160  0.64600743  0.60542372     0.20500
C791        C  0.04643206  0.63018079  0.59366908     0.18600
C792        C  0.08019320  0.60864908  0.59954288    -0.17900
C793        C  0.08900887  0.60100697  0.62568139    -0.20200
C794        C  0.06360450  0.61394974  0.64635460     0.20100
C795        C  0.07118220  0.60507522  0.67249268    -0.33200
C796        C  0.04403809  0.61593274  0.69327443     0.00800
C797        C  0.48159127  0.61826362  0.68503377    -0.24500
C798        C  0.45922851  0.65630711  0.57908779    -0.29100
C799        C  0.00531068  0.66200550  0.56165610     0.06500
C800        C  0.03851966  0.63952628  0.56751405    -0.27800
H801        H  0.40891498  0.67279835  0.62055417     0.11200
H802        H  0.41890504  0.65661289  0.66669505     0.12300
H803        H  0.10015741  0.59814601  0.58394853     0.11400
H804        H  0.11583898  0.58512124  0.62974110     0.10700
H805        H  0.09656799  0.58735257  0.67649714     0.16000
H806        H  0.45764198  0.62436142  0.70017495     0.11900
H807        H  0.43579785  0.67596124  0.57493528     0.14800
H808        H  0.05958516  0.63088084  0.55178216     0.14600
C809        C  0.34127524  0.97191838  0.88379625    -0.18300
C810        C  0.33674581  0.96214583  0.91095615    -0.20500
C811        C  0.35141578  0.92516530  0.92151744     0.20200
C812        C  0.37133400  0.89830321  0.90453919    -0.03400
C813        C  0.37400299  0.90657912  0.87719588    -0.06500
C814        C  0.35950448  0.94401928  0.86663331     0.20500
C815        C  0.39070255  0.87670152  0.86040954     0.18600
C816        C  0.40693464  0.84105410  0.87082068    -0.17900
C817        C  0.40540870  0.83379242  0.89784550    -0.20200
C818        C  0.38670855  0.86131396  0.91474500     0.20100
C819        C  0.37976846  0.84937340  0.94144961    -0.33200
C820        C  0.35594920  0.87215004  0.95802902     0.00800
C821        C  0.34360044  0.91168737  0.94838324    -0.24500
C822        C  0.36486366  0.95360438  0.83925657    -0.29100
C823        C  0.38255624  0.92426136  0.82258641     0.06500
C824        C  0.39251947  0.88391816  0.83342767    -0.27800
H825        H  0.32975178  0.00063913  0.87617791     0.11200
H826        H  0.32131996  0.98314457  0.92366461     0.12300
H827        H  0.42083908  0.81875498  0.85803590     0.11400
H828        H  0.41743538  0.80545021  0.90546383     0.10700
H829        H  0.38830112  0.81821926  0.94898607     0.16000
H830        H  0.32430129  0.92846062  0.96125230     0.11900
H831        H  0.35787136  0.98540772  0.83122921     0.14800
H832        H  0.40579526  0.86063405  0.82090531     0.14600
C833        C  0.33276166  0.79881357  0.64904023    -0.18300
C834        C  0.32667062  0.78337171  0.62234467    -0.20500
C835        C  0.33703785  0.82402930  0.60334577     0.20200
C836        C  0.35337033  0.88062666  0.61112001    -0.03400
C837        C  0.35810932  0.89578396  0.63807159    -0.06500
C838        C  0.34834740  0.85482702  0.65709668     0.20500
C839        C  0.37327052  0.95204304  0.64594622     0.18600
C840        C  0.38353361  0.99261867  0.62689472    -0.17900
C841        C  0.37931935  0.97771197  0.60011460    -0.20200
C842        C  0.36415050  0.92174686  0.59201977     0.20100
C843        C  0.35828700  0.90572395  0.56522901    -0.33200
C844        C  0.34179075  0.84907856  0.55728033     0.00800
C845        C  0.32994279  0.80838517  0.57672104    -0.24500
C846        C  0.35592154  0.87102225  0.68380101    -0.29100
C847        C  0.37288827  0.92754801  0.69169608     0.06500
C848        C  0.37974631  0.96728834  0.67270751    -0.27800
H849        H  0.32522999  0.76696199  0.66337064     0.11200
H850        H  0.31412605  0.73966266  0.61654280     0.12300
H851        H  0.39503084  0.03592027  0.63270720     0.11400
H852        H  0.38765088  0.00984036  0.58577064     0.10700
H853        H  0.36439665  0.93668655  0.55070535     0.16000
H854        H  0.31302585  0.76348188  0.57138786     0.11900
H855        H  0.35096071  0.84042698  0.69829778     0.14800
H856        H  0.39344956  0.01130313  0.67856846     0.14600
C857        C  0.82238902  0.20642166  0.48541973     0.79700
N858        N  0.87748476  0.22342548  0.48771342    -0.78600
C859        C  0.89304049  0.18408925  0.48778936     0.82200
N860        N  0.85028869  0.12862644  0.98506323    -0.78500
C861        C  0.79624846  0.11373769  0.98236427     0.82300
N862        N  0.78502454  0.15648279  0.98313991    -0.80200
C863        C  0.70758065  0.30828355  0.98953352     0.79700
N864        N  0.73005392  0.36616589  0.98699800    -0.78600
C865        C  0.69681968  0.38814848  0.98616063     0.82200
N866        N  0.64011053  0.35139621  0.98893590    -0.78500
C867        C  0.61659918  0.29377119  0.99195387     0.82300
N868        N  0.65105400  0.27294633  0.99290261    -0.80200
C869        C  0.82504103  0.32809957  0.02899822     0.86000
C870        C  0.83039485  0.27702099  0.02116563    -0.54200
C871        C  0.81268073  0.25524391  0.99648069     0.08900
C872        C  0.78185586  0.27828571  0.48099374     0.19900
C873        C  0.85846990  0.37245063  0.00732744    -0.54900
C874        C  0.83009618  0.34164031  0.48244055     0.09000
C875        C  0.76366021  0.30740402  0.02418383    -0.54500
C876        C  0.74531630  0.28967385  0.99898519     0.09600
H877        H  0.85113995  0.26199308  0.03332508     0.14100
H878        H  0.76770449  0.26090803  0.46065938    -0.00100
H879        H  0.89499251  0.41541967  0.01102094     0.14400
H880        H  0.74034424  0.31707332  0.03838115     0.14200
C881        C  0.50369979  0.18031828  0.03379438     0.86000
C882        C  0.50198200  0.14033599  0.01091632    -0.54200
C883        C  0.49458966  0.15647009  0.48221840     0.08900
C884        C  0.50076988  0.21517247  0.48043203     0.19900
C885        C  0.55563639  0.23954274  0.02819591    -0.54900
C886        C  0.55876270  0.25847414  0.00337561     0.09000
C887        C  0.94166335  0.17392112  0.02385839    -0.54500
C888        C  0.94621896  0.19721557  0.00002121     0.09600
H889        H  0.49990868  0.10011721  0.01363378     0.14100
H890        H  0.50556793  0.23089287  0.46007764    -0.00100
H891        H  0.59151414  0.26009308  0.04142674     0.14400
H892        H  0.90255236  0.15402471  0.03477812     0.14200
C893        C  0.67837587  0.99520584  0.02234341     0.86000
C894        C  0.70635646  0.45706872  0.01848347    -0.54200
C895        C  0.72103476  0.45040770  0.99359515     0.08900
C896        C  0.72283835  0.99054047  0.48208532     0.19900
C897        C  0.72821156  0.05396529  0.01529231    -0.54900
C898        C  0.75110681  0.05596754  0.99145958     0.09000
C899        C  0.63669103  0.97898815  0.99907068    -0.54500
C900        C  0.66251776  0.97592718  0.47911753     0.09600
H901        H  0.69712623  0.42580364  0.03357959     0.14100
H902        H  0.74369642  0.98992579  0.46350379    -0.00100
H903        H  0.74364418  0.09205455  0.02810093     0.14400
H904        H  0.59369587  0.96741925  0.00128195     0.14200
O905        O  0.90052231  0.41867771  0.23453446    -0.85800
O906        O  0.54779526  0.47202924  0.21875621    -0.82900
C907        C  0.57326713  0.96924435  0.21349554     0.97600
O908        O  0.60593425  0.00357225  0.23152228    -0.82900
O909        O  0.58116755  0.08318515  0.22422157    -0.85500
C910        C  0.54642713  0.09722934  0.21997658     1.02200
O911        O  0.97931618  0.07276788  0.23569936    -0.78300
O912        O  0.91010209  0.50000553  0.22466834    -0.78500
C913        C  0.89371704  0.44885074  0.21860544     1.02100
O914        O  0.93872830  0.43089352  0.28728347    -0.85800
O915        O  0.58221517  0.47249859  0.27227370    -0.82900
C916        C  0.57707637  0.96648169  0.29215972     0.97700
O917        O  0.59521408  0.01876266  0.28884738    -0.82900
O918        O  0.58185546  0.10656450  0.28135770    -0.85500
C919        C  0.54200882  0.09504002  0.29714057     1.02100
O920        O  0.96085604  0.04105679  0.29082928    -0.78300
O921        O  0.89093709  0.47194953  0.28164101    -0.78500
C922        C  0.90396102  0.44293791  0.29557399     1.02100
Cr923      Cr  0.97291259  0.44549615  0.25299018     1.93700
Cr924      Cr  0.58660175  0.04967876  0.25646060     1.93200
Cr925      Cr  0.94384114  0.53859817  0.25813576     1.39100
O926        O  0.51324430  0.99671948  0.25602511    -1.23600
C927        C  0.53444336  0.94695474  0.09323912    -0.18300
C928        C  0.52055739  0.94112549  0.11998419    -0.20500
C929        C  0.56225544  0.95949209  0.13927340     0.20200
C930        C  0.61856010  0.98447109  0.13169009    -0.03400
C931        C  0.63248214  0.98960754  0.10468860    -0.06500
C932        C  0.59026075  0.97056093  0.08530741     0.20500
C933        C  0.68854473  0.01295332  0.09713416     0.18600
C934        C  0.73048826  0.03269395  0.11639952    -0.17900
C935        C  0.71684940  0.02876066  0.14313720    -0.20200
C936        C  0.66097056  0.00434074  0.15105906     0.20100
C937        C  0.64673499  0.99941227  0.17793739    -0.33200
C938        C  0.59047511  0.97345135  0.18556465     0.00800
C939        C  0.54860807  0.95363201  0.16602462    -0.24500
C940        C  0.60439644  0.97415221  0.05841913    -0.29100
C941        C  0.66019461  0.99549105  0.05075054     0.06500
C942        C  0.70173592  0.01507313  0.07044802    -0.27800
H943        H  0.50139606  0.93221338  0.07877838     0.11200
H944        H  0.47713745  0.92196280  0.12558615     0.12300
H945        H  0.77387714  0.05098065  0.11078075     0.11400
H946        H  0.74997228  0.04427641  0.15761950     0.10700
H947        H  0.67913529  0.01523449  0.19282678     0.16000
H948        H  0.50511128  0.93476570  0.17164001     0.11900
H949        H  0.57159959  0.95837425  0.04384697     0.14800
H950        H  0.74479858  0.03119325  0.06486027     0.14600
C951        C  0.63816078  0.89273159  0.36334127    -0.18300
C952        C  0.64946116  0.89404035  0.39015551    -0.20500
C953        C  0.63084797  0.91922214  0.40870788     0.20200
C954        C  0.59790901  0.94037281  0.40046880    -0.03400
C955        C  0.58632088  0.93884381  0.37344419    -0.06500
C956        C  0.60787165  0.91636234  0.35465569     0.20500
C957        C  0.55605552  0.96299049  0.36512780     0.18600
C958        C  0.53460912  0.98503592  0.38380443    -0.17900
C959        C  0.54605074  0.98647597  0.41056704    -0.20200
C960        C  0.57925542  0.96605329  0.41903403     0.20100
C961        C  0.59704160  0.97408035  0.44536621    -0.33200
C962        C  0.63346970  0.95705085  0.45320297     0.00800
C963        C  0.64741579  0.92670055  0.43507815    -0.24500
C964        C  0.60148844  0.92101445  0.32757321    -0.29100
C965        C  0.57477720  0.94880056  0.31942568     0.06500
C966        C  0.55046664  0.96764560  0.33823571    -0.27800
H967        H  0.65471514  0.87497794  0.34933295     0.11200
H968        H  0.67460747  0.87732896  0.39627314     0.12300
H969        H  0.51051059  0.00290945  0.37763115     0.11400
H970        H  0.53059141  0.00543089  0.42452441     0.10700
H971        H  0.58570269  0.99702711  0.45921818     0.16000
H972        H  0.67353424  0.91114396  0.44115307     0.11900
H973        H  0.62029896  0.90667487  0.31305021     0.14800
H974        H  0.52937144  0.98867995  0.33183626     0.14600
C975        C  0.61950929  0.13915047  0.38689365    -0.18300
C976        C  0.60829047  0.13862912  0.41392357    -0.20500
C977        C  0.55724748  0.13071750  0.42272779     0.20200
C978        C  0.51755100  0.12405754  0.40409458    -0.03400
C979        C  0.53020484  0.12790191  0.37703349    -0.06500
C980        C  0.58077146  0.13392543  0.36822330     0.20500
C981        C  0.97108098  0.11102531  0.36058683     0.18600
C982        C  0.92199802  0.10369881  0.37167103    -0.17900
C983        C  0.91510281  0.10215818  0.39886806    -0.20200
C984        C  0.95781697  0.10938575  0.41532722     0.20100
C985        C  0.95266614  0.11229957  0.44251888    -0.33200
C986        C  0.49580365  0.12714965  0.45786190     0.00800
C987        C  0.54632845  0.13288170  0.44970607    -0.24500
C988        C  0.58974621  0.13106695  0.34097491    -0.29100
C989        C  0.54938016  0.12441357  0.32287056     0.06500
C990        C  0.97626872  0.10864597  0.33341784    -0.27800
H991        H  0.65850256  0.14376423  0.38060164     0.11200
H992        H  0.63933964  0.14395426  0.42793593     0.13700
H993        H  0.88841902  0.09801667  0.35927306     0.11400
H994        H  0.87673965  0.09622068  0.40704250     0.10700
H995        H  0.91551114  0.10916255  0.45073962     0.16000
H996        H  0.57883593  0.14419458  0.46408038     0.11900
H997        H  0.62507324  0.12882872  0.33409826     0.14800
H998        H  0.94190532  0.10145342  0.32111032     0.14600
C999        C  0.93512121  0.15689103  0.12534067    -0.18300
C1000       C  0.94104801  0.14795050  0.15170542    -0.20500
C1001       C  0.97590685  0.12842834  0.15862915     0.20200
C1002       C  0.52980369  0.13569051  0.14080736    -0.03400
C1003       C  0.52143946  0.14409845  0.11444446    -0.06500
C1004       C  0.96339203  0.14572238  0.10541020     0.20500
C1005       C  0.54679884  0.13062228  0.09370660     0.18600
C1006       C  0.58060121  0.10912893  0.09956131    -0.17900
C1007       C  0.58943163  0.10145852  0.12569306    -0.20200
C1008       C  0.56400778  0.11434129  0.14637930     0.20100
C1009       C  0.57164973  0.10549500  0.17251264    -0.33200
C1010       C  0.54451482  0.11631960  0.19331126     0.00800
C1011       C  0.98124127  0.11825128  0.18502699    -0.24500
C1012       C  0.95865452  0.15599637  0.07907509    -0.29100
C1013       C  0.50561144  0.16242497  0.06171806     0.06500
C1014       C  0.53889014  0.14001742  0.06755946    -0.27800
H1015       H  0.90828871  0.17242075  0.12053292     0.11200
H1016       H  0.91839321  0.15638327  0.16667903     0.12300
H1017       H  0.60059231  0.09868502  0.08395734     0.11400
H1018       H  0.61630203  0.08561273  0.12973765     0.10700
H1019       H  0.59710607  0.08784656  0.17650202     0.16000
H1020       H  0.95730325  0.12437022  0.20016687     0.11900
H1021       H  0.93517160  0.17559284  0.07492282     0.14800
H1022       H  0.55999884  0.13144878  0.05182152     0.14600
C1023       C  0.84076259  0.47174012  0.38373056    -0.18300
C1024       C  0.83610796  0.46197642  0.41089514    -0.20500
C1025       C  0.85111429  0.42532993  0.42153731     0.20200
C1026       C  0.87153219  0.39883159  0.40464024    -0.03400
C1027       C  0.87430751  0.40706619  0.37728948    -0.06500
C1028       C  0.85943437  0.44413804  0.36664017     0.20500
C1029       C  0.89145294  0.37747691  0.36058077     0.18600
C1030       C  0.90808731  0.34223382  0.37107649    -0.17900
C1031       C  0.90647636  0.33503968  0.39810892    -0.20200
C1032       C  0.88727288  0.36220346  0.41493021     0.20100
C1033       C  0.88017426  0.35021468  0.44163123    -0.33200
C1034       C  0.85585132  0.37258494  0.45812104     0.00800
C1035       C  0.84314653  0.41180008  0.44839814    -0.24500
C1036       C  0.86483186  0.45363341  0.33925147    -0.29100
C1037       C  0.88290188  0.42452265  0.32265349     0.06500
C1038       C  0.89327274  0.38454882  0.33358924    -0.27800
H1039       H  0.82897619  0.50020295  0.37605128     0.11200
H1040       H  0.82031304  0.48270877  0.42354242     0.12300
H1041       H  0.92235815  0.32018520  0.35835086     0.11400
H1042       H  0.91880653  0.30699515  0.40579121     0.10700
H1043       H  0.88897053  0.31929614  0.44922298     0.16000
H1044       H  0.82347829  0.42827292  0.46119789     0.11900
H1045       H  0.85751417  0.48515313  0.33115743     0.14800
H1046       H  0.90683873  0.36142977  0.32113569     0.14600
C1047       C  0.83270285  0.29875596  0.14906554    -0.18300
C1048       C  0.82653079  0.28329858  0.12237213    -0.20500
C1049       C  0.83672187  0.32390889  0.10338079     0.20200
C1050       C  0.85291822  0.38046490  0.11116158    -0.03400
C1051       C  0.85776008  0.39564163  0.13811357    -0.06500
C1052       C  0.84820892  0.35474036  0.15712867     0.20500
C1053       C  0.87282719  0.45186567  0.14599840     0.18600
C1054       C  0.88283385  0.49237055  0.12695415    -0.17900
C1055       C  0.87849250  0.47743741  0.10017182    -0.20200
C1056       C  0.86347521  0.42152264  0.09206830     0.20100
C1057       C  0.85757319  0.40548870  0.06527714    -0.33200
C1058       C  0.84129358  0.34890507  0.05732206     0.00800
C1059       C  0.82961235  0.30825722  0.07675755    -0.24500
C1060       C  0.85593736  0.37096852  0.18382794    -0.29100
C1061       C  0.87287255  0.42747853  0.19173065     0.06500
C1062       C  0.87947731  0.46715040  0.17275905    -0.27800
H1063       H  0.82532365  0.26694609  0.16338909     0.11200
H1064       H  0.81407972  0.23961930  0.11656531     0.12300
H1065       H  0.89424725  0.53564149  0.13277279     0.11400
H1066       H  0.88663713  0.50951420  0.08583338     0.10700
H1067       H  0.86352912  0.43639686  0.05075576     0.16000
H1068       H  0.81282301  0.26337914  0.07142616     0.11900
H1069       H  0.85114927  0.34042020  0.19831029     0.14800
H1070       H  0.89312283  0.51114608  0.17862622     0.14600
C1071       C  0.82676852  0.21310940  0.98573193     0.79700
N1072       N  0.88064675  0.22667280  0.98866720    -0.78600
C1073       C  0.89317546  0.18506387  0.98762640     0.82200
N1074       N  0.85210652  0.12665113  0.48730627    -0.78500
C1075       C  0.79699712  0.10841085  0.48517553     0.82300
N1076       N  0.78282650  0.14888577  0.48457622    -0.80200
C1077       C  0.70158389  0.30239058  0.48927031     0.79700
N1078       N  0.72568767  0.36108434  0.49056696    -0.78600
C1079       C  0.69386071  0.38476199  0.49024800     0.82200
N1080       N  0.63692417  0.34880174  0.48962744    -0.78500
C1081       C  0.61170562  0.29050156  0.48883157     0.82300
N1082       N  0.64448950  0.26764652  0.48938446    -0.80200
C1083       C  0.81453029  0.31718617  0.52886875     0.86000
C1084       C  0.82189528  0.26770024  0.52086972    -0.54200
C1085       C  0.80572725  0.24677870  0.49597339     0.08900
C1086       C  0.78997801  0.28750930  0.98148653     0.19900
C1087       C  0.84766785  0.36296738  0.50748532    -0.54900
C1088       C  0.83965752  0.35040953  0.98249246     0.09000
C1089       C  0.75288545  0.29458517  0.52379396    -0.54500
C1090       C  0.73599697  0.27914991  0.49828982     0.09600
H1091       H  0.84189852  0.25253504  0.53349696     0.14100
H1092       H  0.77507971  0.26966841  0.96127387    -0.00100
H1093       H  0.88290554  0.40657127  0.51128928     0.14400
H1094       H  0.72873634  0.30302662  0.53803398     0.14200
C1095       C  0.49023601  0.17993372  0.52856410     0.86000
C1096       C  0.48888560  0.13720695  0.50732107    -0.54200
C1097       C  0.50245618  0.16069648  0.98653652     0.08900
C1098       C  0.50464488  0.21765407  0.98708362     0.19900
C1099       C  0.54503330  0.23709513  0.52339524    -0.54900
C1100       C  0.55256539  0.25478505  0.49812268     0.09000
C1101       C  0.95040219  0.18593764  0.52374661    -0.54500
C1102       C  0.94908081  0.20149943  0.49871727     0.09600
H1103       H  0.48425451  0.09634883  0.51170153     0.14100
H1104       H  0.50516094  0.23427413  0.96734621    -0.00100
H1105       H  0.57880209  0.25761913  0.53778510     0.14400
H1106       H  0.91344362  0.16864354  0.53608057     0.14200
C1107       C  0.67879340  0.99596060  0.52674945     0.86000
C1108       C  0.69531273  0.44721806  0.52439028    -0.54200
C1109       C  0.71702959  0.44529608  0.50047389     0.08900
C1110       C  0.72089123  0.99658296  0.97622253     0.19900
C1111       C  0.73091650  0.05258470  0.51932860    -0.54900
C1112       C  0.75426713  0.05139175  0.49606836     0.09000
C1113       C  0.63901742  0.97916327  0.50257914    -0.54500
C1114       C  0.65958789  0.97976089  0.97476703     0.09600
H1115       H  0.68089624  0.41250074  0.53825487     0.14100
H1116       H  0.74104003  0.99888052  0.95699023    -0.00100
H1117       H  0.74649929  0.09219902  0.53104641     0.14400
H1118       H  0.59640606  0.96912541  0.50364058     0.14200
O1119       O  0.91786651  0.39784679  0.73346625    -0.85800
O1120       O  0.48390940  0.41128590  0.71772214    -0.82900
C1121       C  0.55662534  0.99416794  0.71335218     0.97600
O1122       O  0.58820241  0.02795882  0.73175239    -0.82900
O1123       O  0.56142371  0.10620203  0.72422635    -0.85500
C1124       C  0.52465361  0.11689347  0.71891795     1.02200
O1125       O  0.03010726  0.12497133  0.73662691    -0.78300
O1126       O  0.93168429  0.48176104  0.72436776    -0.78500
C1127       C  0.91295208  0.43017217  0.71797716     1.02100
O1128       O  0.95256583  0.40761259  0.78732748    -0.85800
O1129       O  0.51145814  0.40592367  0.77336079    -0.82900
C1130       C  0.56202606  0.99099395  0.79113224     0.97700
O1131       O  0.57669123  0.04261009  0.78874455    -0.82900
O1132       O  0.56226374  0.12955746  0.78104090    -0.85500
C1133       C  0.52263254  0.11752473  0.79694480     1.02100
O1134       O  0.01414140  0.09318256  0.79125884    -0.78300
O1135       O  0.90684502  0.44977950  0.77960786    -0.78500
C1136       C  0.91786134  0.42060509  0.79440362     1.02100
Cr1137     Cr  0.98839136  0.42161541  0.75338312     1.93700
Cr1138     Cr  0.56754087  0.07324702  0.75641772     1.93200
Cr1139     Cr  0.96349672  0.51764190  0.75815644     1.39100
O1140       O  0.49447934  0.01939975  0.75594236    -1.23600
C1141       C  0.53327952  0.97279654  0.59225377    -0.18300
C1142       C  0.51676849  0.97129657  0.61844437    -0.20500
C1143       C  0.55512495  0.98636321  0.63903207     0.20200
C1144       C  0.61117359  0.00500291  0.63326478    -0.03400
C1145       C  0.62770202  0.00586840  0.60684430    -0.06500
C1146       C  0.58842313  0.98896477  0.58623071     0.20500
C1147       C  0.68313538  0.02221612  0.60114747     0.18600
C1148       C  0.72225937  0.04004908  0.62165093    -0.17900
C1149       C  0.70610596  0.04009123  0.64780548    -0.20200
C1150       C  0.65045004  0.02177354  0.65389668     0.20100
C1151       C  0.63314495  0.01907767  0.68020360    -0.33200
C1152       C  0.57679375  0.99831011  0.68602212     0.00800
C1153       C  0.53825589  0.98264884  0.66529265    -0.24500
C1154       C  0.60448239  0.98707815  0.56006297    -0.29100
C1155       C  0.65920734  0.00087171  0.55430128     0.06500
C1156       C  0.69820888  0.01910630  0.57511804    -0.27800
H1157       H  0.50261805  0.96021623  0.57676621     0.11200
H1158       H  0.47384620  0.95781572  0.62262384     0.12300
H1159       H  0.76524218  0.05328464  0.61748085     0.11400
H1160       H  0.73690638  0.05343734  0.66329944     0.10700
H1161       H  0.66302875  0.03178167  0.69608918     0.16000
H1162       H  0.49495900  0.96806577  0.66961195     0.11900
H1163       H  0.57371627  0.97328665  0.54464820     0.14800
H1164       H  0.74059950  0.03016061  0.57095494     0.14600
C1165       C  0.63232353  0.91411913  0.85651487    -0.18300
C1166       C  0.64509186  0.91217050  0.88281163    -0.20500
C1167       C  0.62678136  0.93424457  0.90308153     0.20200
C1168       C  0.59322236  0.95611932  0.89702068    -0.03400
C1169       C  0.58015395  0.95786536  0.87052486    -0.06500
C1170       C  0.60083914  0.93794347  0.85006530     0.20500
C1171       C  0.54869009  0.98215144  0.86446200     0.18600
C1172       C  0.52804349  0.00159099  0.88477671    -0.17900
C1173       C  0.54113631  0.99999844  0.91100419    -0.20200
C1174       C  0.57493915  0.97879080  0.91730924     0.20100
C1175       C  0.59327582  0.98271044  0.94327961    -0.33200
C1176       C  0.62984092  0.96452748  0.94908527     0.00800
C1177       C  0.64391621  0.93761045  0.92911671    -0.24500
C1178       C  0.59192695  0.94483890  0.82360369    -0.29100
C1179       C  0.56368210  0.97244086  0.81773319     0.06500
C1180       C  0.54068603  0.98915227  0.83816455    -0.27800
H1181       H  0.64835574  0.89841572  0.84118674     0.11200
H1182       H  0.67080507  0.89505231  0.88723113     0.12300
H1183       H  0.50308940  0.01957327  0.88032388     0.11400
H1184       H  0.52614611  0.01688111  0.92628901     0.10700
H1185       H  0.58211631  0.00330510  0.95853788     0.16000
H1186       H  0.67048540  0.92154148  0.93356945     0.11900
H1187       H  0.60964024  0.93207234  0.80780386     0.14800
H1188       H  0.51828090  0.00991205  0.83350474     0.14600
C1189       C  0.61321874  0.15591136  0.88338431    -0.18300
C1190       C  0.60647471  0.15271671  0.91080828    -0.20500
C1191       C  0.55638905  0.14205859  0.92239254     0.20200
C1192       C  0.51294401  0.13505350  0.90616735    -0.03400
C1193       C  0.52086003  0.14118581  0.87875507    -0.06500
C1194       C  0.57072428  0.15039381  0.86714355     0.20500
C1195       C  0.01021315  0.15633128  0.85889798     0.18600
C1196       C  0.95885930  0.14782774  0.86734488    -0.17900
C1197       C  0.94283584  0.13661185  0.89363808    -0.20200
C1198       C  0.97855671  0.13513874  0.91196715     0.20100
C1199       C  0.96442720  0.12823307  0.93859907    -0.33200
C1200       C  0.50034043  0.13347112  0.96095103     0.00800
C1201       C  0.55000164  0.14177245  0.94990190    -0.24500
C1202       C  0.57555102  0.15056131  0.83949914    -0.29100
C1203       C  0.53144822  0.14294017  0.82373579     0.06500
C1204       C  0.02413819  0.16280116  0.83226619    -0.27800
H1205       H  0.65170571  0.16282722  0.87488911     0.11200
H1206       H  0.64030111  0.15826828  0.92294498     0.13700
H1207       H  0.93051830  0.14865395  0.85349186     0.11400
H1208       H  0.90287543  0.12995162  0.89971896     0.10700
H1209       H  0.92589552  0.12469208  0.94500742     0.16000
H1210       H  0.58518894  0.15326034  0.96258673     0.11900
H1211       H  0.61093162  0.15141349  0.83038173     0.14800
H1212       H  0.99459930  0.16110921  0.81827742     0.14600
C1213       C  0.95129263  0.17078758  0.62575734    -0.18300
C1214       C  0.96237710  0.16733296  0.65210144    -0.20500
C1215       C  0.00598212  0.15971991  0.65873004     0.20200
C1216       C  0.50803919  0.14372941  0.63782257    -0.03400
C1217       C  0.50016784  0.14797334  0.61083829    -0.06500
C1218       C  0.98328589  0.16616142  0.60555228     0.20500
C1219       C  0.53384174  0.14212169  0.59179186     0.18600
C1220       C  0.57452061  0.13116247  0.59982537    -0.17900
C1221       C  0.58240332  0.12705698  0.62654416    -0.20200
C1222       C  0.54956869  0.13357157  0.64563403     0.20100
C1223       C  0.55698447  0.12911519  0.67237482    -0.33200
C1224       C  0.52266328  0.13330245  0.69163772     0.00800
C1225       C  0.01697325  0.15570968  0.68515321    -0.24500
C1226       C  0.97343500  0.17156123  0.57921048    -0.29100
C1227       C  0.48822042  0.16230976  0.55700577     0.06500
C1228       C  0.52749237  0.14907870  0.56512697    -0.27800
H1229       H  0.91769872  0.17723000  0.62118631     0.11200
H1230       H  0.93691422  0.17078731  0.66730081     0.12300
H1231       H  0.60060980  0.12632713  0.58547503     0.11400
H1232       H  0.61429138  0.11887721  0.63228371     0.10700
H1233       H  0.58819804  0.11986282  0.67803386     0.16000
H1234       H  0.99087229  0.15752538  0.70051667     0.11900
H1235       H  0.94236934  0.18189114  0.57536268     0.14800
H1236       H  0.55492583  0.14674337  0.55068442     0.14600
C1237       C  0.85389924  0.46338353  0.87820661    -0.18300
C1238       C  0.84950055  0.45904043  0.90566657    -0.20500
C1239       C  0.86384110  0.42420469  0.91865669     0.20200
C1240       C  0.88339304  0.39401892  0.90384224    -0.03400
C1241       C  0.88569520  0.39663365  0.87621950    -0.06500
C1242       C  0.87154305  0.43200181  0.86325044     0.20500
C1243       C  0.90207125  0.36359123  0.86159668     0.18600
C1244       C  0.91793042  0.32998375  0.87445461    -0.17900
C1245       C  0.91681068  0.32835343  0.90179820    -0.20200
C1246       C  0.89877777  0.35941588  0.91655728     0.20100
C1247       C  0.89219601  0.35316356  0.94366473    -0.33200
C1248       C  0.86776676  0.37839197  0.95805638     0.00800
C1249       C  0.85563858  0.41578121  0.94589170    -0.24500
C1250       C  0.87708835  0.43655856  0.83570309    -0.29100
C1251       C  0.89518318  0.40484508  0.82125547     0.06500
C1252       C  0.90455209  0.36628082  0.83433326    -0.27800
H1253       H  0.84283495  0.49070877  0.86864134     0.11200
H1254       H  0.83448951  0.48257953  0.91671765     0.12300
H1255       H  0.93150801  0.30521851  0.86335917     0.11400
H1256       H  0.92869561  0.30165688  0.91137162     0.10700
H1257       H  0.90060977  0.32370750  0.95322160     0.16000
H1258       H  0.83579980  0.43432882  0.95712800     0.11900
H1259       H  0.87049932  0.46692680  0.82581775     0.14800
H1260       H  0.91832483  0.34144770  0.82340393     0.14600
C1261       C  0.81979129  0.27872963  0.64821414    -0.18300
C1262       C  0.80637972  0.26374484  0.62164230    -0.20500
C1263       C  0.82209490  0.30677722  0.60309567     0.20200
C1264       C  0.85068128  0.36525173  0.61127638    -0.03400
C1265       C  0.86244331  0.38016257  0.63812276    -0.06500
C1266       C  0.84783468  0.33681616  0.65666443     0.20500
C1267       C  0.88975998  0.43858172  0.64630970     0.18600
C1268       C  0.90529591  0.48158033  0.62781016    -0.17900
C1269       C  0.89463897  0.46687965  0.60112052    -0.20200
C1270       C  0.86752813  0.40886798  0.59265245     0.20100
C1271       C  0.85696615  0.39378178  0.56589544    -0.33200
C1272       C  0.82922185  0.33552685  0.55748970     0.00800
C1273       C  0.80996042  0.29232431  0.57646532    -0.24500
C1274       C  0.86247635  0.35252742  0.68319393    -0.29100
C1275       C  0.89016904  0.41081339  0.69128597     0.06500
C1276       C  0.90258011  0.45332468  0.67278810    -0.27800
H1277       H  0.80818093  0.24493995  0.66213417     0.11200
H1278       H  0.78446554  0.21856617  0.61553651     0.12300
H1279       H  0.92618854  0.52659187  0.63396662     0.11400
H1280       H  0.90766021  0.50087340  0.58712263     0.10700
H1281       H  0.86904697  0.42749561  0.55194192     0.16000
H1282       H  0.78593473  0.24708333  0.57041425     0.11900
H1283       H  0.85325428  0.31979740  0.69735884     0.14800
H1284       H  0.92485380  0.49864698  0.67872084     0.14600
C1285       C  0.82574273  0.71003870  0.49182458     0.79700
N1286       N  0.88070040  0.72635090  0.49376466    -0.78600
C1287       C  0.89570410  0.68658960  0.49329898     0.82200
N1288       N  0.85306591  0.63244433  0.98036760    -0.78500
C1289       C  0.79795341  0.61397134  0.97792576     0.82300
N1290       N  0.78358720  0.65441114  0.97798605    -0.80200
C1291       C  0.70245438  0.80734445  0.98382749     0.79700
N1292       N  0.72578847  0.86591779  0.98433637    -0.78600
C1293       C  0.69302728  0.88861426  0.98514192     0.82200
N1294       N  0.63626173  0.85192525  0.98668503    -0.78500
C1295       C  0.61203657  0.79380062  0.98672339     0.82300
N1296       N  0.64568457  0.77202779  0.98588977    -0.80200
C1297       C  0.81310609  0.81922094  0.02490522     0.86000
C1298       C  0.82015192  0.76984164  0.01607329    -0.54200
C1299       C  0.80626427  0.75196520  0.99062703     0.08900
C1300       C  0.78271871  0.77927137  0.48653833     0.19900
C1301       C  0.84907402  0.86724623  0.00490912    -0.54900
C1302       C  0.83004287  0.84298600  0.48534831     0.09000
C1303       C  0.75240745  0.79843115  0.01861392    -0.54500
C1304       C  0.73794745  0.78556189  0.99274808     0.09600
H1305       H  0.83869091  0.75278766  0.02849854     0.14100
H1306       H  0.76566648  0.75818421  0.46699920    -0.00100
H1307       H  0.88462132  0.90985334  0.01015272     0.14400
H1308       H  0.72687312  0.80523902  0.03268448     0.14200
C1309       C  0.50198634  0.68269698  0.03029349     0.86000
C1310       C  0.50129136  0.64102269  0.00864945    -0.54200
C1311       C  0.49933376  0.65642041  0.48361477     0.08900
C1312       C  0.50175224  0.71353511  0.48549002     0.19900
C1313       C  0.55283815  0.74194086  0.02357174    -0.54900
C1314       C  0.55491954  0.75781042  0.99824069     0.09000
C1315       C  0.94411433  0.68931947  0.02002081    -0.54500
C1316       C  0.94794691  0.70621357  0.99473635     0.09600
H1317       H  0.50052493  0.60194992  0.01270074     0.14100
H1318       H  0.50657330  0.73407323  0.46629529    -0.00100
H1319       H  0.58881428  0.76515841  0.03667200     0.14400
H1320       H  0.90572901  0.67426713  0.03100317     0.14200
C1321       C  0.68679720  0.49920688  0.02166643     0.86000
C1322       C  0.69884915  0.95366647  0.01903225    -0.54200
C1323       C  0.71666697  0.94981816  0.99438382     0.08900
C1324       C  0.72586885  0.49463856  0.48265257     0.19900
C1325       C  0.73607125  0.55677106  0.01311097    -0.54900
C1326       C  0.75570632  0.55647369  0.98868543     0.09000
C1327       C  0.64240788  0.48088064  0.99930613    -0.54500
C1328       C  0.66554497  0.47955581  0.47888157     0.09600
H1329       H  0.68773943  0.92061824  0.03345072     0.14100
H1330       H  0.74896331  0.49819132  0.46421291    -0.00100
H1331       H  0.75300371  0.59602002  0.02524658     0.14400
H1332       H  0.59949232  0.46883174  0.00242004     0.14200
O1333       O  0.87963746  0.88137898  0.23195706    -0.85800
O1334       O  0.52307201  0.93259127  0.21874999    -0.82900
C1335       C  0.59790475  0.50883874  0.21328133     0.97600
O1336       O  0.63059551  0.54461335  0.23094025    -0.82900
O1337       O  0.60267360  0.62182337  0.22352259    -0.85500
C1338       C  0.56555546  0.63240197  0.21886363     1.02200
O1339       O  0.98803442  0.60886474  0.23584443    -0.78300
O1340       O  0.89509561  0.96639900  0.22394457    -0.78500
C1341       C  0.87556302  0.91494208  0.21695434     1.02100
O1342       O  0.91173374  0.88839190  0.28608797    -0.85800
O1343       O  0.55427579  0.93038473  0.27315468    -0.82900
C1344       C  0.60384964  0.50797025  0.29150893     0.97700
O1345       O  0.62003790  0.55989920  0.28855307    -0.82900
O1346       O  0.60364656  0.64558321  0.28095178    -0.85500
C1347       C  0.56355764  0.63330532  0.29671813     1.02100
O1348       O  0.97335262  0.57934868  0.29119865    -0.78300
O1349       O  0.87231155  0.93776843  0.28031712    -0.78500
C1350       C  0.88120475  0.90593673  0.29442854     1.02100
Cr1351     Cr  0.94857062  0.90179081  0.25237721     1.93700
Cr1352     Cr  0.60983376  0.58966618  0.25600152     1.93200
Cr1353     Cr  0.92986578  0.00259071  0.25749266     1.39100
O1354       O  0.53682631  0.53520984  0.25586889    -1.23600
C1355       C  0.55307967  0.47445913  0.09392544    -0.18300
C1356       C  0.54179144  0.47581083  0.12067758    -0.20500
C1357       C  0.58411314  0.49318560  0.13948855     0.20200
C1358       C  0.63852478  0.50978821  0.13146060    -0.03400
C1359       C  0.64983855  0.50797635  0.10441951    -0.06500
C1360       C  0.60689516  0.49017657  0.08555147     0.20500
C1361       C  0.70388474  0.52348361  0.09631233     0.18600
C1362       C  0.74638433  0.54129050  0.11516410    -0.17900
C1363       C  0.73527969  0.54360996  0.14198153    -0.20200
C1364       C  0.68141153  0.52778723  0.15042819     0.20100
C1365       C  0.66932853  0.52896014  0.17740902    -0.33200
C1366       C  0.61457611  0.51091237  0.18540226     0.00800
C1367       C  0.57263104  0.49373981  0.16622410    -0.24500
C1368       C  0.61819396  0.48785660  0.05867707    -0.29100
C1369       C  0.67193994  0.50271391  0.05035899     0.06500
C1370       C  0.71441032  0.52054936  0.06949960    -0.27800
H1371       H  0.51960361  0.46072691  0.07981756     0.11200
H1372       H  0.49979814  0.46294645  0.12667588     0.12300
H1373       H  0.78822409  0.55337017  0.10916884     0.11400
H1374       H  0.76875608  0.55742390  0.15611533     0.10700
H1375       H  0.70180821  0.54245387  0.19206895     0.16000
H1376       H  0.53050908  0.48096050  0.17214873     0.11900
H1377       H  0.58480521  0.47384996  0.04462028     0.14800
H1378       H  0.75599887  0.53192520  0.06335905     0.14600
C1379       C  0.65738326  0.42191402  0.36033614    -0.18300
C1380       C  0.66481547  0.41724350  0.38709826    -0.20500
C1381       C  0.64398669  0.43879220  0.40639266     0.20200
C1382       C  0.61293892  0.46257833  0.39880008    -0.03400
C1383       C  0.60568372  0.46754981  0.37182063    -0.06500
C1384       C  0.62912244  0.44832112  0.35243858     0.20500
C1385       C  0.57748931  0.49448675  0.36430107     0.18600
C1386       C  0.55323287  0.51226577  0.38354581    -0.17900
C1387       C  0.56017822  0.50704276  0.41026659    -0.20200
C1388       C  0.59171232  0.48422797  0.41812933     0.20100
C1389       C  0.60523788  0.48581588  0.44478096    -0.33200
C1390       C  0.64003610  0.46642190  0.45217979     0.00800
C1391       C  0.65645599  0.44000752  0.43303203    -0.24500
C1392       C  0.62611244  0.45834768  0.32567764    -0.29100
C1393       C  0.60155035  0.48890214  0.31848467     0.06500
C1394       C  0.57603648  0.50532258  0.33775585    -0.27800
H1395       H  0.67534616  0.40659245  0.34583626     0.11200
H1396       H  0.68854217  0.39855642  0.39269571     0.12300
H1397       H  0.53018869  0.53168873  0.37793979     0.11400
H1398       H  0.54253916  0.52269934  0.42477544     0.10700
H1399       H  0.59205003  0.50578660  0.45940363     0.16000
H1400       H  0.68144344  0.42279122  0.43865383     0.11900
H1401       H  0.64541339  0.44542996  0.31075180     0.14800
H1402       H  0.55607581  0.52796445  0.33204203     0.14600
C1403       C  0.63346625  0.66014059  0.38691109    -0.18300
C1404       C  0.61939493  0.65355297  0.41374080    -0.20500
C1405       C  0.56808907  0.64524602  0.42236596     0.20200
C1406       C  0.53118969  0.64470160  0.40377158    -0.03400
C1407       C  0.54673377  0.65448147  0.37703144    -0.06500
C1408       C  0.59738262  0.66058860  0.36833129     0.20500
C1409       C  0.97844862  0.63733934  0.36285546     0.18600
C1410       C  0.92825704  0.62641321  0.37425830    -0.17900
C1411       C  0.91981418  0.61886473  0.40127742    -0.20200
C1412       C  0.96192930  0.62333765  0.41730286     0.20100
C1413       C  0.95527762  0.62034727  0.44453953    -0.33200
C1414       C  0.50345228  0.63457393  0.45743777     0.00800
C1415       C  0.55415014  0.64065824  0.44929945    -0.24500
C1416       C  0.60880824  0.66295001  0.34110407    -0.29100
C1417       C  0.57068331  0.66095409  0.32292600     0.06500
C1418       C  0.98532822  0.64094432  0.33567020    -0.27800
H1419       H  0.67244021  0.66462421  0.38068724     0.11200
H1420       H  0.64831912  0.65418288  0.42770432     0.13700
H1421       H  0.89507821  0.62266566  0.36220310     0.11400
H1422       H  0.88067960  0.61037128  0.40969441     0.10700
H1423       H  0.91753674  0.61515549  0.45318247     0.16000
H1424       H  0.58453347  0.64684073  0.46393485     0.11900
H1425       H  0.64384065  0.66034071  0.33407261     0.14800
H1426       H  0.95128203  0.63520592  0.32356596     0.14600
C1427       C  0.92572523  0.66385251  0.12203165    -0.18300
C1428       C  0.93303849  0.65893093  0.14875768    -0.20500
C1429       C  0.97440628  0.64909428  0.15688217     0.20200
C1430       C  0.53873710  0.65510050  0.13850676    -0.03400
C1431       C  0.52709850  0.65789489  0.11186336    -0.06500
C1432       C  0.95935027  0.65853797  0.10294179     0.20500
C1433       C  0.55913017  0.65274153  0.09165805     0.18600
C1434       C  0.60203557  0.64388868  0.09827904    -0.17900
C1435       C  0.61340977  0.64080557  0.12467655    -0.20200
C1436       C  0.58219622  0.64671265  0.14490502     0.20100
C1437       C  0.59298960  0.64331189  0.17138842    -0.33200
C1438       C  0.56037372  0.64725836  0.19169407     0.00800
C1439       C  0.98176068  0.64363657  0.18368264    -0.24500
C1440       C  0.95377732  0.66588623  0.07625013    -0.29100
C1441       C  0.50612626  0.66784139  0.05862496     0.06500
C1442       C  0.54851926  0.65782220  0.06527023    -0.27800
H1443       H  0.89387370  0.67206867  0.11630363     0.11200
H1444       H  0.90645115  0.66302402  0.16307204     0.12300
H1445       H  0.62697918  0.63961761  0.08305719     0.11400
H1446       H  0.64669196  0.63386830  0.12926849     0.10700
H1447       H  0.62549561  0.63525354  0.17607359     0.16000
H1448       H  0.95445236  0.64582640  0.19823470     0.11900
H1449       H  0.92437012  0.67770441  0.07125095     0.14800
H1450       H  0.57457032  0.65599783  0.04987121     0.14600
C1451       C  0.83025397  0.95394219  0.38154605    -0.18300
C1452       C  0.82900322  0.94973779  0.40907344    -0.20500
C1453       C  0.84367233  0.91399607  0.42099783     0.20200
C1454       C  0.85992057  0.88244883  0.40494181    -0.03400
C1455       C  0.85886347  0.88483494  0.37729298    -0.06500
C1456       C  0.84484355  0.92140128  0.36538665     0.20500
C1457       C  0.87165461  0.85020725  0.36158165     0.18600
C1458       C  0.88761391  0.81549747  0.37327899    -0.17900
C1459       C  0.89016527  0.81434000  0.40054470    -0.20200
C1460       C  0.87556166  0.84687518  0.41646702     0.20100
C1461       C  0.87303689  0.84143241  0.44367379    -0.33200
C1462       C  0.85250158  0.86857942  0.45959288     0.00800
C1463       C  0.83947952  0.90640881  0.44845056    -0.24500
C1464       C  0.84735160  0.92572391  0.33767027    -0.29100
C1465       C  0.86153692  0.89194829  0.32202705     0.06500
C1466       C  0.87034641  0.85211945  0.33433123    -0.27800
H1467       H  0.81910462  0.98207418  0.37288993     0.11200
H1468       H  0.81634873  0.97428297  0.42102386     0.12300
H1469       H  0.89849738  0.78948727  0.36131586     0.11400
H1470       H  0.90220647  0.78687954  0.40918264     0.10700
H1471       H  0.88211710  0.81163471  0.45234402     0.16000
H1472       H  0.82251480  0.92645483  0.46077775     0.11900
H1473       H  0.84112331  0.95705772  0.32851727     0.14800
H1474       H  0.88092256  0.82545150  0.32266891     0.14600
C1475       C  0.80101552  0.77016357  0.14408471    -0.18300
C1476       C  0.79497922  0.75788173  0.11703666    -0.20500
C1477       C  0.81117968  0.80219895  0.09915762     0.20200
C1478       C  0.83231436  0.85909927  0.10846601    -0.03400
C1479       C  0.83691368  0.87117164  0.13573737    -0.06500
C1480       C  0.82230211  0.82672542  0.15363372     0.20500
C1481       C  0.85726676  0.92793511  0.14505019     0.18600
C1482       C  0.87221992  0.97196950  0.12717383    -0.17900
C1483       C  0.86831376  0.96012761  0.10010755    -0.20200
C1484       C  0.84877025  0.90389447  0.09055804     0.20100
C1485       C  0.84487716  0.89158193  0.06343961    -0.33200
C1486       C  0.82478675  0.83500133  0.05393554     0.00800
C1487       C  0.80618660  0.79038954  0.07211663    -0.24500
C1488       C  0.83114933  0.84003774  0.18066137    -0.29100
C1489       C  0.85366433  0.89704776  0.18992139     0.06500
C1490       C  0.86444618  0.94020879  0.17204688    -0.27800
H1491       H  0.78937063  0.73552591  0.15750922     0.11200
H1492       H  0.77842346  0.71384663  0.11008540     0.12300
H1493       H  0.88764949  0.01572223  0.13412540     0.11400
H1494       H  0.88078857  0.99496673  0.08667236     0.10700
H1495       H  0.85576437  0.92577080  0.04990137     0.16000
H1496       H  0.78688104  0.74590312  0.06526723     0.11900
H1497       H  0.82285820  0.80669956  0.19429161     0.14800
H1498       H  0.88212262  0.98451557  0.17890861     0.14600
C1499       C  0.82308758  0.71207614  0.97952501     0.79700
N1500       N  0.87804647  0.72902539  0.98223401    -0.78600
C1501       C  0.89382645  0.68988275  0.98191688     0.82200
N1502       N  0.85418563  0.62918762  0.49244737    -0.78500
C1503       C  0.79912080  0.61170163  0.49051742     0.82300
N1504       N  0.78555630  0.65268625  0.49070522    -0.80200
C1505       C  0.70233402  0.80240147  0.49557912     0.79700
N1506       N  0.72512072  0.86078076  0.49506006    -0.78600
C1507       C  0.69204066  0.88293423  0.49425948     0.82200
N1508       N  0.63519131  0.84593978  0.49492854    -0.78500
C1509       C  0.61142871  0.78789341  0.49575450     0.82300
N1510       N  0.64547651  0.76658680  0.49678325    -0.80200
C1511       C  0.82209533  0.82667476  0.53265805     0.86000
C1512       C  0.82999730  0.77707703  0.52566450    -0.54200
C1513       C  0.81012347  0.75162437  0.50175098     0.08900
C1514       C  0.78514878  0.78639696  0.97597183     0.19900
C1515       C  0.85102332  0.86887282  0.50951419    -0.54900
C1516       C  0.83382904  0.84932372  0.97930518     0.09000
C1517       C  0.75948227  0.80193480  0.52936598    -0.54500
C1518       C  0.73895532  0.78191987  0.50465103     0.09600
H1519       H  0.85277451  0.76497000  0.53817683     0.14100
H1520       H  0.77312930  0.77175199  0.95516877    -0.00100
H1521       H  0.88613977  0.91316924  0.51163077     0.14400
H1522       H  0.73692042  0.81210728  0.54380849     0.14200
C1523       C  0.49071254  0.66727727  0.53110434     0.86000
C1524       C  0.49375933  0.63147128  0.50746285    -0.54200
C1525       C  0.50104950  0.65818124  0.98362637     0.08900
C1526       C  0.50163427  0.71418889  0.98234305     0.19900
C1527       C  0.54366575  0.72726151  0.52853418    -0.54900
C1528       C  0.55189676  0.75076026  0.50441448     0.09000
C1529       C  0.95327658  0.68531130  0.52813384    -0.54500
C1530       C  0.95219415  0.70353138  0.50371433     0.09600
H1531       H  0.49140778  0.59089366  0.50932968     0.14100
H1532       H  0.50158309  0.72818740  0.96206257    -0.00100
H1533       H  0.57664335  0.74529487  0.54332605     0.14400
H1534       H  0.91669589  0.66732466  0.54083378     0.14200
C1535       C  0.67596928  0.48976778  0.52706268     0.86000
C1536       C  0.69614310  0.95172815  0.52578383    -0.54200
C1537       C  0.71525673  0.94485116  0.50198542     0.08900
C1538       C  0.72344283  0.49539231  0.97467475     0.19900
C1539       C  0.72810390  0.54871423  0.52206508    -0.54900
C1540       C  0.75481129  0.55263138  0.49908011     0.09000
C1541       C  0.63887429  0.47712491  0.50223660    -0.54500
C1542       C  0.66215916  0.47867655  0.97456744     0.09600
H1543       H  0.68269876  0.91991089  0.54104882     0.14100
H1544       H  0.74098677  0.49524554  0.95499731    -0.00100
H1545       H  0.74146349  0.58582147  0.53527600     0.14400
H1546       H  0.59596250  0.46635253  0.50278658     0.14200
O1547       O  0.94274438  0.93361880  0.73456853    -0.85800
O1548       O  0.50586588  0.95779623  0.71790746    -0.82900
C1549       C  0.53523893  0.44535989  0.71348471     0.97600
O1550       O  0.56696493  0.47722747  0.73224707    -0.82900
O1551       O  0.54757715  0.56080654  0.72330070    -0.85500
C1552       C  0.51500381  0.57746766  0.71852612     1.02200
O1553       O  0.01056087  0.59001739  0.73752848    -0.78300
O1554       O  0.95336076  0.01546819  0.72435659    -0.78500
C1555       C  0.93535192  0.96369050  0.71874565     1.02100
O1556       O  0.98092998  0.94730272  0.78788807    -0.85800
O1557       O  0.53991074  0.95575220  0.77179817    -0.82900
C1558       C  0.53588037  0.44239709  0.79219874     0.97700
O1559       O  0.55538381  0.49492517  0.78871397    -0.82900
O1560       O  0.54965793  0.58709384  0.77985061    -0.85500
C1561       C  0.51119637  0.57803546  0.79596314     1.02100
O1562       O  0.99211656  0.55515812  0.79180787    -0.78300
O1563       O  0.93169657  0.98583765  0.78044143    -0.78500
C1564       C  0.94486243  0.95824844  0.79520817     1.02100
Cr1565     Cr  0.01517851  0.96110073  0.75353007     1.93700
Cr1566     Cr  0.55014462  0.52674532  0.75594854     1.93200
Cr1567     Cr  0.98566300  0.05352686  0.75795293     1.39100
O1568       O  0.47610120  0.47692262  0.75529616    -1.23600
C1569       C  0.51833182  0.43352743  0.59166218    -0.18300
C1570       C  0.49918278  0.42497858  0.61773725    -0.20500
C1571       C  0.53686060  0.44101518  0.63877830     0.20200
C1572       C  0.59443587  0.46661969  0.63355212    -0.03400
C1573       C  0.61366335  0.47473247  0.60723627    -0.06500
C1574       C  0.57550742  0.45790897  0.58612134     0.20500
C1575       C  0.67101704  0.49890407  0.60210570     0.18600
C1576       C  0.70893454  0.51640741  0.62310172    -0.17900
C1577       C  0.69008355  0.50943232  0.64912277    -0.20200
C1578       C  0.63289091  0.48417178  0.65460622     0.20100
C1579       C  0.61360682  0.47639138  0.68074395    -0.33200
C1580       C  0.55619325  0.45014136  0.68612617     0.00800
C1581       C  0.51809168  0.43240119  0.66495031    -0.24500
C1582       C  0.59502322  0.46463206  0.55992744    -0.29100
C1583       C  0.65224075  0.48707675  0.55464554     0.06500
C1584       C  0.68955065  0.50417958  0.57608901    -0.27800
H1585       H  0.48829296  0.42047864  0.57583236     0.11200
H1586       H  0.45483986  0.40567752  0.62144829     0.12300
H1587       H  0.75326138  0.53534234  0.61938926     0.11400
H1588       H  0.72021399  0.52330830  0.66496888     0.10700
H1589       H  0.64320143  0.49074454  0.69687091     0.16000
H1590       H  0.47377527  0.41333069  0.66883558     0.11900
H1591       H  0.56518931  0.45035399  0.54401479     0.14800
H1592       H  0.73353703  0.52086236  0.57241202     0.14600
C1593       C  0.60965408  0.37639524  0.86104294    -0.18300
C1594       C  0.62799153  0.38289353  0.88709582    -0.20500
C1595       C  0.61492124  0.41235094  0.90604140     0.20200
C1596       C  0.58043439  0.43259255  0.89913088    -0.03400
C1597       C  0.56168259  0.42577114  0.87286377    -0.06500
C1598       C  0.57775837  0.39906019  0.85348979     0.20500
C1599       C  0.52966900  0.44875327  0.86570014     0.18600
C1600       C  0.51383361  0.47519686  0.88495612    -0.17900
C1601       C  0.53239480  0.48191358  0.91094566    -0.20200
C1602       C  0.56708921  0.46229843  0.91811304     0.20100
C1603       C  0.59090758  0.47431994  0.94346473    -0.33200
C1604       C  0.62829522  0.45749187  0.94988417     0.00800
C1605       C  0.63806124  0.42442142  0.93137573    -0.24500
C1606       C  0.56477342  0.39893611  0.82677041    -0.29100
C1607       C  0.53665343  0.42590782  0.81949259     0.06500
C1608       C  0.51710284  0.44823103  0.83915850    -0.27800
H1609       H  0.62202044  0.35533771  0.84662244     0.11200
H1610       H  0.65407354  0.36661887  0.89221742     0.12300
H1611       H  0.48858485  0.49239307  0.87972840     0.11400
H1612       H  0.52100459  0.50402433  0.92525256     0.10700
H1613       H  0.58303850  0.49963622  0.95758437     0.16000
H1614       H  0.66557728  0.40981163  0.93631349     0.11900
H1615       H  0.58014798  0.38207787  0.81165406     0.14800
H1616       H  0.49511774  0.46885051  0.83351371     0.14600
C1617       C  0.60634420  0.63144005  0.88230124    -0.18300
C1618       C  0.60134041  0.63468670  0.90973134    -0.20500
C1619       C  0.55228462  0.62751475  0.92099892     0.20200
C1620       C  0.50819177  0.61758530  0.90440336    -0.03400
C1621       C  0.51445599  0.61737914  0.87686089    -0.06500
C1622       C  0.56318038  0.62295003  0.86562917     0.20500
C1623       C  0.99123071  0.62475782  0.85871706     0.18600
C1624       C  0.94019648  0.61668185  0.86737806    -0.17900
C1625       C  0.92699030  0.61104650  0.89406667    -0.20200
C1626       C  0.96526692  0.61486529  0.91248033     0.20100
C1627       C  0.95407364  0.61413305  0.93929831    -0.33200
C1628       C  0.49850809  0.62773881  0.95893651     0.00800
C1629       C  0.54744525  0.63328471  0.94837271    -0.24500
C1630       C  0.56620339  0.61683143  0.83809117    -0.29100
C1631       C  0.52159149  0.60700235  0.82203946     0.06500
C1632       C  0.00264691  0.62631673  0.83194344    -0.27800
H1633       H  0.64402682  0.63574916  0.87413358     0.11200
H1634       H  0.63566217  0.64239576  0.92213536     0.13700
H1635       H  0.90996597  0.61357390  0.85344431     0.11400
H1636       H  0.88724525  0.60465651  0.90034783     0.10700
H1637       H  0.91578693  0.61102557  0.94572077     0.16000
H1638       H  0.58307808  0.64674822  0.96108882     0.11900
H1639       H  0.60068630  0.61515458  0.82949961     0.14800
H1640       H  0.97152752  0.62143941  0.81801904     0.14600
C1641       C  0.96320019  0.68004762  0.62954011    -0.18300
C1642       C  0.97028793  0.67035750  0.65561840    -0.20500
C1643       C  0.00343256  0.64814236  0.66147822     0.20200
C1644       C  0.50539884  0.61783218  0.63870426    -0.03400
C1645       C  0.49862704  0.62588046  0.61203747    -0.06500
C1646       C  0.98823281  0.66662952  0.60884489     0.20500
C1647       C  0.52735716  0.61483093  0.59209391     0.18600
C1648       C  0.56266014  0.59580075  0.59903709    -0.17900
C1649       C  0.56954302  0.58803907  0.62545638    -0.20200
C1650       C  0.54098184  0.59877785  0.64537051     0.20100
C1651       C  0.54656136  0.58967266  0.67177717    -0.33200
C1652       C  0.51612674  0.59808319  0.69176225     0.00800
C1653       C  0.01038518  0.63776023  0.68760992    -0.24500
C1654       C  0.98167338  0.67677201  0.58275534    -0.29100
C1655       C  0.48723375  0.64507862  0.55874338     0.06500
C1656       C  0.52155191  0.62455366  0.56566870    -0.27800
H1657       H  0.93779862  0.69775050  0.62554032     0.11200
H1658       H  0.95005756  0.68049141  0.67120347     0.12300
H1659       H  0.58519850  0.58721950  0.58406116     0.11400
H1660       H  0.59723811  0.57359639  0.63031929     0.10700
H1661       H  0.57288700  0.57344894  0.67656279     0.16000
H1662       H  0.98893261  0.64567662  0.70341484     0.11900
H1663       H  0.95952227  0.69815600  0.57922219     0.14800
H1664       H  0.54561409  0.61844721  0.55060241     0.14600
C1665       C  0.86102673  0.98018514  0.87828079    -0.18300
C1666       C  0.84986503  0.96894617  0.90518238    -0.20500
C1667       C  0.86504903  0.93443229  0.91790381     0.20200
C1668       C  0.89274937  0.91209707  0.90346703    -0.03400
C1669       C  0.90207429  0.92164797  0.87628029    -0.06500
C1670       C  0.88634801  0.95598239  0.86349926     0.20500
C1671       C  0.92654333  0.89603077  0.86184899     0.18600
C1672       C  0.94389529  0.86354433  0.87458317    -0.17900
C1673       C  0.93571277  0.85506668  0.90152257    -0.20200
C1674       C  0.90922279  0.87811838  0.91596628     0.20100
C1675       C  0.89574674  0.86452448  0.94230382    -0.33200
C1676       C  0.86428085  0.88242059  0.95612603     0.00800
C1677       C  0.85041259  0.91893178  0.94431254    -0.24500
C1678       C  0.89708642  0.96593338  0.83633601    -0.29100
C1679       C  0.92191072  0.94046527  0.82201007     0.06500
C1680       C  0.93461102  0.90417093  0.83493822    -0.27800
H1681       H  0.84899258  0.00697999  0.86895359     0.11200
H1682       H  0.82885967  0.98676480  0.91596904     0.12300
H1683       H  0.96378832  0.84467257  0.86368747     0.11400
H1684       H  0.94875570  0.82915260  0.91093658     0.10700
H1685       H  0.90535599  0.83554640  0.95146352     0.16000
H1686       H  0.82522014  0.93187541  0.95502084     0.11900
H1687       H  0.88800092  0.99471448  0.82666756     0.14800
H1688       H  0.95383204  0.88428151  0.82425750     0.14600
C1689       C  0.84132888  0.80450983  0.65258078    -0.18300
C1690       C  0.82632300  0.78623899  0.62640448    -0.20500
C1691       C  0.83869817  0.82659525  0.60690211     0.20200
C1692       C  0.86550843  0.88566425  0.61370775    -0.03400
C1693       C  0.87872867  0.90380325  0.64021885    -0.06500
C1694       C  0.86758975  0.86320014  0.65969639     0.20500
C1695       C  0.90375265  0.96265130  0.64715044     0.18600
C1696       C  0.91540877  0.00281205  0.62768554    -0.17900
C1697       C  0.90366543  0.98505754  0.60129194    -0.20200
C1698       C  0.87886233  0.92656829  0.59406940     0.20100
C1699       C  0.86673133  0.90820460  0.56762324    -0.33200
C1700       C  0.84030687  0.84923654  0.56064392     0.00800
C1701       C  0.82458236  0.80876894  0.58069410    -0.24500
C1702       C  0.88396694  0.88220358  0.68580164    -0.29100
C1703       C  0.91004895  0.94103943  0.69263223     0.06500
C1704       C  0.91836062  0.98068521  0.67331081    -0.27800
H1705       H  0.83233652  0.77277999  0.66724085     0.11200
H1706       H  0.80576544  0.74061653  0.62134391     0.12300
H1707       H  0.93414676  0.04799261  0.63285757     0.11400
H1708       H  0.91384582  0.01704767  0.58656846     0.10700
H1709       H  0.87622024  0.93969394  0.55280743     0.16000
H1710       H  0.80139220  0.76289839  0.57584663     0.11900
H1711       H  0.87756606  0.85159079  0.70060074     0.14800
H1712       H  0.93900778  0.02634643  0.67830440     0.14600
loop_ 
_geom_bond_atom_site_label_1 
_geom_bond_atom_site_label_2 
_geom_bond_distance 
_geom_bond_site_symmetry_2 
_ccdc_geom_bond_type 
C1            N2   1.369       .  A
C1          N220   1.362       .  A
C1          C229   1.500       .  S
N2            C3   1.364       .  A
C3          N218   1.366       .  A
C3          C246   1.497       .  S
N4            C5   1.364       .  A
N4          C217   1.369       .  A
C5            N6   1.367       .  A
C5           C42   1.495       .  S
N6          C215   1.360       .  A
C7            N8   1.369       .  A
C7           N12   1.363       .  A
C7           C20   1.500   1_556  S
N8            C9   1.361       .  A
C9           N10   1.365       .  A
C9           C39   1.497   1_556  S
N10          C11   1.358       .  A
C11          N12   1.369       .  A
C11          C30   1.493   1_556  S
C13          C14   1.522       .  S
C13          C19   1.527       .  S
C13          C17   1.559       .  S
C13         C202   1.517       .  S
C14          H21   1.088       .  S
C14          C15   1.353       .  D
C15         C215   1.498   1_554  S
C15         C230   1.567   1_554  S
C16          C18   1.531       .  S
C16         C229   1.569       .  S
C16         C234   1.561       .  S
C16          H22   1.111       .  S
C17          H23   1.084       .  S
C17         C232   1.372   1_554  D
C18         C178   1.466       .  S
C18         C231   1.368       .  D
C19          H24   1.089       .  S
C19          C20   1.362       .  D
C20         C230   1.561   1_554  S
C25          C26   1.559       .  S
C25          C29   1.527   1_655  S
C25         C887   1.533       .  S
C25         C157   1.529       .  S
C26          H33   1.085       .  S
C26         C241   1.375   1_554  D
C27         C130   1.467   1_455  S
C27          C28   1.530       .  S
C27         C240   1.371       .  D
C28        C1102   1.555   1_455  S
C28         C244   1.549       .  S
C28          H34   1.111       .  S
C29          H35   1.088       .  S
C29          C30   1.361       .  D
C30         C242   1.552   1_554  S
C31         C881   1.534       .  S
C31          H36   1.086       .  S
C31          C32   1.359       .  D
C32         C217   1.503   1_554  S
C32        C1098   1.561   1_554  S
C37          C43   1.561       .  S
C37          C41   1.520   1_565  S
C37         C466   1.532       .  S
C37          C85   1.531       .  S
C38         C465   1.531       .  S
C38          H45   1.088       .  S
C38          C39   1.366       .  D
C39         C682   1.556   1_554  S
C40          C44   1.535       .  S
C40         C681   1.559       .  S
C40         C256   1.567   1_565  S
C40          H46   1.110       .  S
C41          H47   1.088       .  S
C41          C42   1.356   1_554  D
C42         C254   1.562   1_545  S
C43          H48   1.083       .  S
C43         C258   1.380   1_554  D
C44         C106   1.492       .  S
C44         C257   1.380       .  D
O49         Cr67   2.012       .  S
O49          C57   1.265       .  A
O50        Cr923   1.952   1_455  S
O50         C479   1.255       .  A
C51          O52   1.270       .  A
C51         O478   1.254   1_455  A
C51          C82   1.485       .  S
O52         Cr68   2.023   1_565  S
O53         Cr68   1.950       .  S
O53          C54   1.256       .  A
C54         O911   1.272   1_455  A
C54         C154   1.482       .  S
O55        Cr497   2.015       .  S
O55         C910   1.269       .  A
O56         Cr69   1.940       .  S
O56          C57   1.250       .  A
C57         C205   1.471       .  S
O58         Cr67   1.929       .  S
O58          C66   1.255       .  A
O59        Cr923   2.018   1_455  S
O59         C488   1.267       .  A
C60          O61   1.254       .  A
C60         O487   1.271       .  A
C60         C109   1.477       .  S
O61         Cr68   1.948   1_565  S
O62         Cr68   2.028       .  S
O62          C63   1.268       .  A
C63         O920   1.249   1_455  A
C63         C133   1.474       .  S
O64        Cr497   1.919       .  S
O64         C919   1.250       .  A
O65         Cr69   2.030       .  S
O65          C66   1.272       .  A
C66         C181   1.479       .  S
Cr67        O906   1.939       .  S
Cr67        O915   2.010       .  S
Cr67       O1354   1.776       .  S
Cr68         O70   1.783   1_445  S
Cr69        O483   2.010       .  S
Cr69        O492   1.921       .  S
Cr69       O1354   1.771       .  S
O70       Cr1351   1.780       .  S
O70       Cr1353   1.773   1_565  S
C71          C72   1.402   1_455  A
C71          C76   1.405       .  A
C71          H87   1.084   1_455  S
C72          C73   1.406   1_655  A
C72          H88   1.083       .  S
C73          C83   1.404       .  A
C73          C74   1.408       .  A
C74          C80   1.415       .  A
C74          C75   1.414       .  A
C75          C77   1.407       .  A
C75          C76   1.414       .  A
C76          C84   1.412       .  A
C77          C86   1.398   1_565  A
C77          C78   1.404   1_565  A
C78          C79   1.398       .  A
C78          H89   1.084       .  S
C79          C80   1.402   1_545  A
C79          H90   1.084       .  S
C80          C81   1.406       .  A
C81          C82   1.404       .  A
C81          H91   1.084       .  S
C82          C83   1.413       .  A
C83          H92   1.085   1_455  S
C84          C85   1.412       .  A
C84          H93   1.080       .  S
C85          C86   1.412   1_565  A
C86          H94   1.085       .  S
C95          C96   1.401       .  A
C95         C100   1.403       .  A
C95         H111   1.084       .  S
C96          C97   1.406       .  A
C96         H112   1.084       .  S
C97         C107   1.402       .  A
C97          C98   1.408       .  A
C98         C104   1.416       .  A
C98          C99   1.414       .  A
C99         C101   1.408       .  A
C99         C100   1.418       .  A
C100        C108   1.412       .  A
C101        C110   1.398       .  A
C101        C102   1.405       .  A
C102        C103   1.399       .  A
C102        H113   1.084   1_455  S
C103        C104   1.403       .  A
C103        H114   1.083   1_565  S
C104        C105   1.409       .  A
C105        C106   1.406       .  A
C105        H115   1.084       .  S
C106        C107   1.411       .  A
C107        H116   1.083       .  S
C108        C109   1.403       .  A
C108        H117   1.084       .  S
C109        C110   1.409       .  A
C110        H118   1.086   1_455  S
C119        C120   1.404       .  A
C119        C124   1.405       .  A
C119        H135   1.083       .  S
C120        C121   1.406       .  A
C120        H136   1.083       .  S
C121        C131   1.408       .  A
C121        C122   1.412       .  A
C122        C123   1.409       .  A
C122        C984   1.411   1_455  A
C123        C124   1.413       .  A
C123        C981   1.408   1_455  A
C124        C132   1.411       .  A
C125        C134   1.390       .  A
C125        C126   1.401       .  A
C125        C979   1.408       .  A
C126        C127   1.392       .  A
C126        H137   1.084       .  S
C127        C128   1.400       .  A
C127        H138   1.083       .  S
C128        C129   1.393       .  A
C128        C978   1.412       .  A
C129        C986   1.398       .  A
C129        H139   1.084       .  S
C130        C131   1.406   1_655  A
C130        C985   1.399       .  A
C131        H140   1.084       .  S
C132        C133   1.408       .  A
C132        H141   1.084       .  S
C133        C990   1.406   1_455  A
C134        C989   1.406       .  A
C134        H142   1.086       .  S
C143        C144   1.398       .  A
C143        C148   1.405       .  A
C143        H159   1.084       .  S
C144        C145   1.402       .  A
C144        H160   1.083       .  S
C145        C155   1.406       .  A
C145       C1002   1.414       .  A
C146        C152   1.408       .  A
C146        C147   1.412   1_455  A
C146       C1001   1.414   1_455  A
C147        C149   1.413   1_655  A
C147       C1004   1.406       .  A
C148        C156   1.399       .  A
C148       C1003   1.407       .  A
C149        C158   1.406       .  A
C149        C150   1.404       .  A
C150        C151   1.399       .  A
C150        H161   1.083       .  S
C151        C152   1.404       .  A
C151        H162   1.083       .  S
C152        C153   1.400       .  A
C153        C154   1.412       .  A
C153        H163   1.084       .  S
C154       C1011   1.405   1_455  A
C155       C1010   1.404       .  A
C155        H164   1.084       .  S
C156       C1013   1.414       .  A
C156        H165   1.082       .  S
C157        C158   1.409   1_655  A
C157       C1012   1.416       .  A
C158        H166   1.083       .  S
C167        C168   1.405       .  A
C167        C172   1.406       .  A
C167        H183   1.083       .  S
C168        C169   1.406       .  A
C168        H184   1.084       .  S
C169        C179   1.408       .  A
C169        C170   1.411       .  A
C170        C176   1.413       .  A
C170        C171   1.409       .  A
C171        C173   1.407       .  A
C171        C172   1.414       .  A
C172        C180   1.412       .  A
C173        C182   1.388       .  A
C173        C174   1.402       .  A
C174        C175   1.391       .  A
C174        H185   1.083       .  S
C175        C176   1.399       .  A
C175        H186   1.084       .  S
C176        C177   1.392       .  A
C177        C178   1.396       .  A
C177        H187   1.086       .  S
C178        C179   1.407       .  A
C179        H188   1.084       .  S
C180        C181   1.409       .  A
C180        H189   1.084       .  S
C181        C182   1.407       .  A
C182        H190   1.084       .  S
C191        C192   1.397       .  A
C191        C196   1.401       .  A
C191        H207   1.083       .  S
C192        C193   1.404       .  A
C192        H208   1.084       .  S
C193        C203   1.393       .  A
C193        C194   1.406       .  A
C194        C200   1.414       .  A
C194        C195   1.407       .  A
C195        C197   1.406       .  A
C195        C196   1.414       .  A
C196        C204   1.402       .  A
C197        C206   1.394       .  A
C197        C198   1.403       .  A
C198        C199   1.396       .  A
C198        H209   1.079       .  S
C199        C200   1.402       .  A
C199        H210   1.084       .  S
C200        C201   1.402       .  A
C201        C202   1.406       .  A
C201        H211   1.082       .  S
C202        C203   1.412       .  A
C203        H212   1.084       .  S
C204        C205   1.402       .  A
C204        H213   1.084       .  S
C205        C206   1.409       .  A
C206        H214   1.084       .  S
C215        N216   1.370       .  A
N216        C217   1.364       .  A
N218        C219   1.361       .  A
C219        N220   1.369       .  A
C219        C256   1.492       .  S
C221        N222   1.370       .  A
C221        N226   1.363       .  A
C221        C234   1.496       .  S
N222        C223   1.363       .  A
C223        N224   1.365       .  A
C223        C253   1.498       .  S
N224        C225   1.356       .  A
C225        N226   1.366       .  A
C225        C244   1.490       .  S
C227        C228   1.523       .  S
C227        C233   1.525       .  S
C227        C231   1.554       .  S
C227        C416   1.516       .  S
C228        H235   1.087       .  S
C228        C229   1.356       .  D
C230        C232   1.531       .  S
C230        H236   1.111       .  S
C231        H237   1.085       .  S
C232        C392   1.471       .  S
C233        H238   1.089       .  S
C233        C234   1.362       .  D
C239        C240   1.554       .  S
C239       C1101   1.539   1_455  S
C239        C243   1.529       .  S
C239        C371   1.532       .  S
C240        H247   1.086   1_455  S
C241        C344   1.471   1_655  S
C241        C242   1.530   1_655  S
C242        C888   1.554   1_456  S
C242        H248   1.111       .  S
C243        H249   1.088       .  S
C243        C244   1.362       .  D
C245       C1095   1.536       .  S
C245        H250   1.083       .  S
C245        C246   1.362       .  D
C246        C884   1.556       .  S
C251        C680   1.528       .  S
C251        C257   1.566       .  S
C251        C255   1.512   1_565  S
C251        C299   1.526   1_565  S
C252        C679   1.533       .  S
C252        H259   1.089       .  S
C252        C253   1.365       .  D
C253        C468   1.554       .  S
C254        C467   1.555   1_556  S
C254        C258   1.536       .  S
C254        H260   1.110       .  S
C255        H261   1.088       .  S
C255        C256   1.353       .  D
C257        H262   1.082       .  S
C258        C320   1.488       .  S
O263       Cr281   2.011       .  S
O263        C271   1.265       .  A
O264      Cr1137   1.942   1_455  S
O264        C693   1.253       .  A
C265        O692   1.255   1_545  A
C265        O266   1.274       .  A
C265        C296   1.479       .  S
O266       Cr282   2.036       .  S
O267       Cr282   1.959       .  S
O267        C268   1.256       .  A
C268       O1125   1.269       .  A
C268        C368   1.483       .  S
O269       Cr711   2.017       .  S
O269       C1124   1.271       .  A
O270       Cr283   1.940       .  S
O270        C271   1.250       .  A
C271        C419   1.474       .  S
O272       Cr281   1.931       .  S
O272        C280   1.255       .  A
O273      Cr1137   2.016   1_455  S
O273        C702   1.267       .  A
C274        O701   1.265   1_545  A
C274        O275   1.254       .  A
C274        C323   1.471   1_545  S
O275       Cr282   1.959       .  S
O276       Cr282   2.037       .  S
O276        C277   1.272       .  A
C277       O1134   1.250       .  A
C277        C347   1.474       .  S
O278       Cr711   1.924       .  S
O278       C1133   1.250       .  A
O279       Cr283   2.029       .  S
O279        C280   1.272       .  A
C280        C395   1.484       .  S
Cr281      O1120   1.960       .  S
Cr281      O1129   2.029       .  S
Cr281      O1568   1.780       .  S
Cr282       O284   1.784       .  S
Cr283       O697   2.021       .  S
Cr283       O706   1.923       .  S
Cr283      O1568   1.773       .  S
O284      Cr1565   1.776   1_545  S
O284      Cr1567   1.771   1_455  S
C285        C286   1.396       .  A
C285        C290   1.402       .  A
C285        H301   1.083       .  S
C286        C287   1.403       .  A
C286        H302   1.082       .  S
C287        C297   1.394       .  A
C287        C288   1.406   1_565  A
C288        C294   1.417       .  A
C288        C289   1.412       .  A
C289        C291   1.406       .  A
C289        C290   1.415   1_545  A
C290        C298   1.405       .  A
C291        C300   1.400       .  A
C291        C292   1.406       .  A
C292        C293   1.401       .  A
C292        H303   1.084       .  S
C293        C294   1.404       .  A
C293        H304   1.084       .  S
C294        C295   1.412       .  A
C295        C296   1.405       .  A
C295        H305   1.084       .  S
C296        C297   1.409   1_545  A
C297        H306   1.085       .  S
C298        C299   1.406   1_565  A
C298        H307   1.079       .  S
C299        C300   1.416       .  A
C300        H308   1.085       .  S
C309        C310   1.400       .  A
C309        C314   1.403       .  A
C309        H325   1.084       .  S
C310        C311   1.405       .  A
C310        H326   1.084       .  S
C311        C321   1.400       .  A
C311        C312   1.407       .  A
C312        C318   1.415       .  A
C312        C313   1.411       .  A
C313        C315   1.408       .  A
C313        C314   1.417       .  A
C314        C322   1.409       .  A
C315        C324   1.396   1_565  A
C315        C316   1.404   1_565  A
C316        C317   1.398       .  A
C316        H327   1.084       .  S
C317        C318   1.402   1_545  A
C317        H328   1.084       .  S
C318        C319   1.406       .  A
C319        C320   1.405       .  A
C319        H329   1.084   1_565  S
C320        C321   1.410       .  A
C321        H330   1.083       .  S
C322        C323   1.402       .  A
C322        H331   1.084       .  S
C323        C324   1.407   1_565  A
C324        H332   1.085       .  S
C333        C334   1.404       .  A
C333        C338   1.405       .  A
C333        H349   1.083       .  S
C334        C335   1.406       .  A
C334        H350   1.083       .  S
C335        C345   1.409       .  A
C335        C336   1.412       .  A
C336       C1198   1.411   1_455  A
C336        C337   1.411       .  A
C337       C1195   1.409       .  A
C337        C338   1.413       .  A
C338        C346   1.412       .  A
C339       C1193   1.409       .  A
C339        C348   1.392       .  A
C339        C340   1.402       .  A
C340        C341   1.393       .  A
C340        H351   1.084       .  S
C341        C342   1.401       .  A
C341        H352   1.084       .  S
C342       C1192   1.411       .  A
C342        C343   1.393       .  A
C343       C1200   1.399       .  A
C343        H353   1.084       .  S
C344       C1199   1.401   1_455  A
C344        C345   1.406       .  A
C345        H354   1.084       .  S
C346        C347   1.408       .  A
C346        H355   1.084       .  S
C347       C1204   1.407       .  A
C348       C1203   1.406       .  A
C348        H356   1.086       .  S
C357        C358   1.399       .  A
C357        C362   1.405       .  A
C357        H373   1.084       .  S
C358        C359   1.403       .  A
C358        H374   1.083       .  S
C359        C369   1.406       .  A
C359       C1216   1.414       .  A
C360       C1215   1.414       .  A
C360        C366   1.409       .  A
C360        C361   1.413       .  A
C361        C363   1.411       .  A
C361       C1218   1.408   1_455  A
C362       C1217   1.408       .  A
C362        C370   1.401       .  A
C363        C372   1.406       .  A
C363        C364   1.405       .  A
C364        C365   1.400       .  A
C364        H375   1.084       .  S
C365        C366   1.405       .  A
C365        H376   1.084       .  S
C366        C367   1.402       .  A
C367        C368   1.412       .  A
C367        H377   1.084       .  S
C368       C1225   1.405       .  A
C369       C1224   1.405       .  A
C369        H378   1.084       .  S
C370       C1227   1.415       .  A
C370        H379   1.077       .  S
C371       C1226   1.414   1_455  A
C371        C372   1.412       .  A
C372        H380   1.084       .  S
C381        C382   1.406       .  A
C381        C386   1.406       .  A
C381        H397   1.083       .  S
C382        C383   1.406       .  A
C382        H398   1.084       .  S
C383        C393   1.411       .  A
C383        C384   1.412       .  A
C384        C390   1.412       .  A
C384        C385   1.411       .  A
C385        C387   1.407       .  A
C385        C386   1.413       .  A
C386        C394   1.415       .  A
C387        C396   1.390       .  A
C387        C388   1.401       .  A
C388        C389   1.391       .  A
C388        H399   1.084       .  S
C389        C390   1.400       .  A
C389        H400   1.084       .  S
C390        C391   1.392       .  A
C391        C392   1.398       .  A
C391        H401   1.085       .  S
C392        C393   1.408       .  A
C393        H402   1.084       .  S
C394        C395   1.411       .  A
C394        H403   1.083       .  S
C395        C396   1.408       .  A
C396        H404   1.085       .  S
C405        C406   1.397       .  A
C405        C410   1.402       .  A
C405        H421   1.083       .  S
C406        C407   1.404       .  A
C406        H422   1.084       .  S
C407        C417   1.394       .  A
C407        C408   1.407       .  A
C408        C414   1.413       .  A
C408        C409   1.407       .  A
C409        C411   1.408       .  A
C409        C410   1.414       .  A
C410        C418   1.402       .  A
C411        C420   1.395       .  A
C411        C412   1.404       .  A
C412        C413   1.396       .  A
C412        H423   1.083       .  S
C413        C414   1.403       .  A
C413        H424   1.084       .  S
C414        C415   1.401       .  A
C415        C416   1.407       .  A
C415        H425   1.082       .  S
C416        C417   1.411       .  A
C417        H426   1.083       .  S
C418        C419   1.403       .  A
C418        H427   1.084       .  S
C419        C420   1.410       .  A
C420        H428   1.085       .  S
C429        N430   1.369       .  A
C429        N648   1.360       .  A
C429        C657   1.496       .  S
N430        C431   1.363       .  A
C431        N646   1.365       .  A
C431        C674   1.495       .  S
N432        C645   1.366       .  A
N432        C433   1.361       .  A
C433        N434   1.367       .  A
C433        C470   1.489       .  S
N434        C643   1.359       .  A
C435        N436   1.370       .  A
C435        N440   1.365       .  A
C435        C448   1.501       .  S
N436        C437   1.362       .  A
C437        N438   1.364       .  A
C437        C467   1.499   1_556  S
N438        C439   1.357       .  A
C439        N440   1.369       .  A
C439        C458   1.491       .  S
C441        C442   1.521       .  S
C441        C447   1.527       .  S
C441        C445   1.558       .  S
C441        C630   1.514       .  S
C442        H449   1.088       .  S
C442        C443   1.354   1_554  D
C443        C643   1.498       .  S
C443        C658   1.568       .  S
C444        C657   1.562       .  S
C444        C662   1.558       .  S
C444        C446   1.533       .  S
C444        H450   1.111       .  S
C445        H451   1.084       .  S
C445        C660   1.368   1_554  D
C446        C606   1.462       .  S
C446        C659   1.368       .  D
C447        H452   1.089       .  S
C447        C448   1.363   1_554  D
C448        C658   1.563       .  S
C453        C454   1.554       .  S
C453       C1315   1.537       .  S
C453        C457   1.528   1_655  S
C453        C585   1.529       .  S
C454        H461   1.086       .  S
C454        C669   1.370   1_554  D
C455        C558   1.465       .  S
C455        C456   1.528       .  S
C455        C668   1.372       .  D
C456       C1530   1.561   1_455  S
C456        C672   1.557       .  S
C456        H462   1.111       .  S
C457        H463   1.088       .  S
C457        C458   1.360   1_554  D
C458        C670   1.552       .  S
C459       C1309   1.538       .  S
C459        H464   1.084       .  S
C459        C460   1.361   1_554  D
C460        C645   1.497       .  S
C460       C1526   1.554       .  S
C465        C471   1.562       .  S
C465        C469   1.513       .  S
C465        C513   1.526       .  S
C466        H473   1.089       .  S
C466        C467   1.365       .  D
C468        C472   1.537       .  S
C468        C684   1.560       .  S
C468        H474   1.110       .  S
C469        H475   1.088       .  S
C469        C470   1.353   1_554  D
C470        C682   1.561       .  S
C471        H476   1.082       .  S
C471        C686   1.379   1_554  D
C472        C534   1.487       .  S
C472        C685   1.381       .  D
O477       Cr495   2.013       .  S
O477        C485   1.266       .  A
O478      Cr1351   1.960       .  S
C479        O480   1.272       .  A
C479        C510   1.477       .  S
O480       Cr496   2.027       .  S
O481       Cr496   1.947       .  S
O481        C482   1.255       .  A
C482       O1339   1.271   1_455  A
C482        C582   1.482       .  S
O483       C1338   1.269       .  A
O484       Cr497   1.930   1_565  S
O484        C485   1.249       .  A
C485        C633   1.468       .  S
O486       Cr495   1.928       .  S
O486        C494   1.253       .  A
O487      Cr1351   2.029   1_455  S
C488        O489   1.253       .  A
C488        C537   1.469       .  S
O489       Cr496   1.950       .  S
O490       Cr496   2.023       .  S
O490        C491   1.268       .  A
C491       O1348   1.250   1_455  A
C491        C561   1.473       .  S
O492       C1347   1.250       .  A
O493       Cr497   2.023   1_565  S
O493        C494   1.270       .  A
C494        C609   1.474       .  S
Cr495      O1334   1.942       .  S
Cr495      O1343   2.016       .  S
Cr495       O926   1.779       .  S
Cr496       O498   1.782   1_455  S
Cr497       O926   1.770   1_545  S
O498       Cr923   1.776       .  S
O498       Cr925   1.775       .  S
C499        C500   1.398       .  A
C499        C504   1.403       .  A
C499        H515   1.083       .  S
C500        C501   1.404       .  A
C500        H516   1.081   1_455  S
C501        C511   1.398       .  A
C501        C502   1.407       .  A
C502        C508   1.415       .  A
C502        C503   1.411       .  A
C503        C505   1.406       .  A
C503        C504   1.414       .  A
C504        C512   1.407       .  A
C505        C514   1.398       .  A
C505        C506   1.405       .  A
C506        C507   1.399       .  A
C506        H517   1.084       .  S
C507        C508   1.403       .  A
C507        H518   1.084       .  S
C508        C509   1.407       .  A
C509        C510   1.403       .  A
C509        H519   1.084       .  S
C510        C511   1.410       .  A
C511        H520   1.085   1_455  S
C512        C513   1.408       .  A
C512        H521   1.079       .  S
C513        C514   1.413       .  A
C514        H522   1.085       .  S
C523        C524   1.400       .  A
C523        C528   1.403       .  A
C523        H539   1.084       .  S
C524        C525   1.405       .  A
C524        H540   1.084       .  S
C525        C535   1.400       .  A
C525        C526   1.408       .  A
C526        C532   1.416       .  A
C526        C527   1.411       .  A
C527        C529   1.408       .  A
C527        C528   1.417       .  A
C528        C536   1.409       .  A
C529        C538   1.395       .  A
C529        C530   1.404       .  A
C530        C531   1.397       .  A
C530        H541   1.084       .  S
C531        C532   1.403       .  A
C531        H542   1.084       .  S
C532        C533   1.406       .  A
C533        C534   1.404       .  A
C533        H543   1.084       .  S
C534        C535   1.410       .  A
C535        H544   1.083       .  S
C536        C537   1.402       .  A
C536        H545   1.084       .  S
C537        C538   1.406       .  A
C538        H546   1.086       .  S
C547        C548   1.403       .  A
C547        C552   1.405       .  A
C547        H563   1.083       .  S
C548        C549   1.405       .  A
C548        H564   1.083       .  S
C549        C559   1.407       .  A
C549        C550   1.412       .  A
C550       C1412   1.411   1_455  A
C550        C551   1.409       .  A
C551       C1409   1.409   1_455  A
C551        C552   1.413       .  A
C552        C560   1.410       .  A
C553       C1407   1.409       .  A
C553        C562   1.394       .  A
C553        C554   1.402       .  A
C554        C555   1.394       .  A
C554        H565   1.084       .  S
C555        C556   1.401       .  A
C555        H566   1.084       .  S
C556       C1406   1.411       .  A
C556        C557   1.395       .  A
C557       C1414   1.401       .  A
C557        H567   1.085       .  S
C558       C1413   1.399   1_455  A
C558        C559   1.405       .  A
C559        H568   1.084       .  S
C560        C561   1.407       .  A
C560        H569   1.084       .  S
C561       C1418   1.406   1_455  A
C562       C1417   1.407       .  A
C562        H570   1.086       .  S
C571        C572   1.397       .  A
C571        C576   1.404       .  A
C571        H587   1.084       .  S
C572        C573   1.402       .  A
C572        H588   1.083       .  S
C573        C583   1.404       .  A
C573       C1430   1.414       .  A
C574       C1429   1.414   1_455  A
C574        C580   1.408       .  A
C574        C575   1.411       .  A
C575        C577   1.411       .  A
C575       C1432   1.407   1_455  A
C576       C1431   1.408       .  A
C576        C584   1.400       .  A
C577        C586   1.402       .  A
C577        C578   1.403       .  A
C578        C579   1.398       .  A
C578        H589   1.084       .  S
C579        C580   1.404       .  A
C579        H590   1.084       .  S
C580        C581   1.398       .  A
C581        C582   1.412       .  A
C581        H591   1.084       .  S
C582       C1439   1.405   1_455  A
C583       C1438   1.405       .  A
C583        H592   1.084       .  S
C584       C1441   1.414       .  A
C584        H593   1.079       .  S
C585       C1440   1.415       .  A
C585        C586   1.409   1_655  A
C586        H594   1.084       .  S
C595        C596   1.402       .  A
C595        C600   1.405       .  A
C595        H611   1.083       .  S
C596        C597   1.405       .  A
C596        H612   1.084       .  S
C597        C607   1.406       .  A
C597        C598   1.412       .  A
C598        C604   1.412       .  A
C598        C599   1.407       .  A
C599        C601   1.408       .  A
C599        C600   1.413       .  A
C600        C608   1.409       .  A
C601        C610   1.389       .  A
C601        C602   1.402       .  A
C602        C603   1.391       .  A
C602        H613   1.084       .  S
C603        C604   1.400       .  A
C603        H614   1.084       .  S
C604        C605   1.391       .  A
C605        C606   1.398       .  A
C605        H615   1.085       .  S
C606        C607   1.404       .  A
C607        H616   1.084       .  S
C608        C609   1.407       .  A
C608        H617   1.084       .  S
C609        C610   1.406       .  A
C610        H618   1.085       .  S
C619        C620   1.397       .  A
C619        C624   1.402       .  A
C619        H635   1.083       .  S
C620        C621   1.404       .  A
C620        H636   1.084       .  S
C621        C631   1.394       .  A
C621        C622   1.406       .  A
C622        C628   1.414       .  A
C622        C623   1.405       .  A
C623        C625   1.407       .  A
C623        C624   1.415       .  A
C624        C632   1.402       .  A
C625        C634   1.390       .  A
C625        C626   1.403       .  A
C626        C627   1.394       .  A
C626        H637   1.082   1_565  S
C627        C628   1.402       .  A
C627        H638   1.084   1_565  S
C628        C629   1.399       .  A
C629        C630   1.406       .  A
C629        H639   1.081       .  S
C630        C631   1.411       .  A
C631        H640   1.084       .  S
C632        C633   1.402       .  A
C632        H641   1.084       .  S
C633        C634   1.409       .  A
C634        H642   1.085       .  S
C643        N644   1.370       .  A
N644        C645   1.365       .  A
N646        C647   1.360       .  A
C647        N648   1.367       .  A
C647        C684   1.487       .  S
C649        N650   1.367       .  A
C649        N654   1.365       .  A
C649        C662   1.497       .  S
N650        C651   1.362       .  A
C651        N652   1.369       .  A
C651        C681   1.497       .  S
N652        C653   1.359       .  A
C653        N654   1.369       .  A
C653        C672   1.501       .  S
C655        C656   1.527       .  S
C655        C661   1.529       .  S
C655        C659   1.550       .  S
C655        C844   1.516       .  S
C656        H663   1.087       .  S
C656        C657   1.355       .  D
C658        C660   1.529       .  S
C658        H664   1.111       .  S
C659        H665   1.085       .  S
C660        C820   1.467       .  S
C661        H666   1.088       .  S
C661        C662   1.363       .  D
C667        C668   1.556       .  S
C667       C1529   1.534   1_455  S
C667        C671   1.527       .  S
C667        C799   1.527       .  S
C668        H675   1.085   1_455  S
C669        C772   1.465       .  S
C669        C670   1.528   1_655  S
C670       C1316   1.556   1_455  S
C670        H676   1.111       .  S
C671        H677   1.088       .  S
C671        C672   1.362       .  D
C673       C1523   1.533       .  S
C673        H678   1.086       .  S
C673        C674   1.359       .  D
C674       C1312   1.555       .  S
C679        C685   1.560       .  S
C679        C683   1.515       .  S
C679        C727   1.526       .  S
C680        H687   1.089       .  S
C680        C681   1.363       .  D
C682        C686   1.536       .  S
C682        H688   1.110       .  S
C683        H689   1.088       .  S
C683        C684   1.353       .  D
C685        H690   1.083       .  S
C686        C748   1.488       .  S
O691       Cr709   2.002       .  S
O691        C699   1.262       .  A
O692      Cr1565   1.940       .  S
C693        O694   1.273       .  A
C693        C724   1.481       .  S
O694       Cr710   2.030       .  S
O695       Cr710   1.950       .  S
O695        C696   1.254       .  A
C696       O1553   1.269       .  A
C696        C796   1.480       .  S
O697       C1552   1.272       .  A
O698       Cr711   1.945       .  S
O698        C699   1.248   1_545  A
C699        C847   1.471       .  S
O700       Cr709   1.925       .  S
O700        C708   1.255       .  A
O701      Cr1565   2.010       .  S
C702        O703   1.253       .  A
C702        C751   1.471       .  S
O703       Cr710   1.951       .  S
O704       Cr710   2.036       .  S
O704        C705   1.271       .  A
C705       O1562   1.250   1_455  A
C705        C775   1.472       .  S
O706       C1561   1.249       .  A
O707       Cr711   2.038   1_565  S
O707        C708   1.275       .  A
C708        C823   1.482       .  S
Cr709      O1548   1.952       .  S
Cr709      O1557   2.018       .  S
Cr709      O1140   1.776   1_565  S
Cr710       O712   1.783       .  S
Cr711      O1140   1.776       .  S
O712      Cr1137   1.779   1_455  S
O712      Cr1139   1.770   1_455  S
C713        C714   1.399       .  A
C713        C718   1.403       .  A
C713        H729   1.084       .  S
C714        C715   1.405       .  A
C714        H730   1.081   1_455  S
C715        C725   1.398       .  A
C715        C716   1.406       .  A
C716        C722   1.417       .  A
C716        C717   1.412       .  A
C717        C719   1.405       .  A
C717        C718   1.416       .  A
C718        C726   1.409       .  A
C719        C728   1.396       .  A
C719        C720   1.405       .  A
C720        C721   1.398       .  A
C720        H731   1.084       .  S
C721        C722   1.402       .  A
C721        H732   1.084       .  S
C722        C723   1.408       .  A
C723        C724   1.403       .  A
C723        H733   1.084       .  S
C724        C725   1.413       .  A
C725        H734   1.084       .  S
C726        C727   1.409       .  A
C726        H735   1.080       .  S
C727        C728   1.413       .  A
C728        H736   1.084       .  S
C737        C738   1.400       .  A
C737        C742   1.403       .  A
C737        H753   1.084       .  S
C738        C739   1.405       .  A
C738        H754   1.084       .  S
C739        C749   1.399       .  A
C739        C740   1.408       .  A
C740        C746   1.416       .  A
C740        C741   1.411       .  A
C741        C743   1.408       .  A
C741        C742   1.417       .  A
C742        C750   1.410       .  A
C743        C752   1.396       .  A
C743        C744   1.404       .  A
C744        C745   1.398       .  A
C744        H755   1.084       .  S
C745        C746   1.403       .  A
C745        H756   1.084       .  S
C746        C747   1.406       .  A
C747        C748   1.405       .  A
C747        H757   1.084       .  S
C748        C749   1.410       .  A
C749        H758   1.083       .  S
C750        C751   1.402       .  A
C750        H759   1.084       .  S
C751        C752   1.407       .  A
C752        H760   1.086       .  S
C761        C762   1.404       .  A
C761        C766   1.405       .  A
C761        H777   1.083       .  S
C762        C763   1.406       .  A
C762        H778   1.083       .  S
C763        C773   1.407       .  A
C763        C764   1.411       .  A
C764       C1626   1.412   1_455  A
C764        C765   1.409       .  A
C765       C1623   1.408   1_455  A
C765        C766   1.414       .  A
C766        C774   1.411       .  A
C767       C1621   1.408       .  A
C767        C776   1.390       .  A
C767        C768   1.401       .  A
C768        C769   1.392       .  A
C768        H779   1.084       .  S
C769        C770   1.400       .  A
C769        H780   1.083       .  S
C770       C1620   1.411       .  A
C770        C771   1.392       .  A
C771       C1628   1.399       .  A
C771        H781   1.084       .  S
C772       C1627   1.398       .  A
C772        C773   1.406   1_655  A
C773        H782   1.084       .  S
C774        C775   1.407       .  A
C774        H783   1.084       .  S
C775       C1632   1.406       .  A
C776       C1631   1.406       .  A
C776        H784   1.086       .  S
C785        C786   1.398       .  A
C785        C790   1.405       .  A
C785        H801   1.083       .  S
C786        C787   1.402       .  A
C786        H802   1.084       .  S
C787        C797   1.406       .  A
C787       C1644   1.414       .  A
C788       C1643   1.414       .  A
C788        C794   1.407       .  A
C788        C789   1.411       .  A
C789        C791   1.413       .  A
C789       C1646   1.407   1_455  A
C790       C1645   1.406       .  A
C790        C798   1.400       .  A
C791        C800   1.405       .  A
C791        C792   1.403       .  A
C792        C793   1.398       .  A
C792        H803   1.084       .  S
C793        C794   1.404       .  A
C793        H804   1.082       .  S
C794        C795   1.398       .  A
C795        C796   1.411       .  A
C795        H805   1.084       .  S
C796       C1653   1.404       .  A
C797       C1652   1.405       .  A
C797        H806   1.084       .  S
C798       C1655   1.416       .  A
C798        H807   1.080       .  S
C799       C1654   1.414   1_455  A
C799        C800   1.409       .  A
C800        H808   1.083       .  S
C809        C810   1.405       .  A
C809        C814   1.406       .  A
C809        H825   1.083   1_565  S
C810        C811   1.406       .  A
C810        H826   1.084       .  S
C811        C821   1.409       .  A
C811        C812   1.411       .  A
C812        C818   1.413       .  A
C812        C813   1.410       .  A
C813        C815   1.407       .  A
C813        C814   1.414       .  A
C814        C822   1.415       .  A
C815        C824   1.388       .  A
C815        C816   1.401       .  A
C816        C817   1.391       .  A
C816        H827   1.084       .  S
C817        C818   1.399       .  A
C817        H828   1.084       .  S
C818        C819   1.392       .  A
C819        C820   1.397       .  A
C819        H829   1.085       .  S
C820        C821   1.407       .  A
C821        H830   1.084       .  S
C822        C823   1.411       .  A
C822        H831   1.084       .  S
C823        C824   1.408       .  A
C824        H832   1.085       .  S
C833        C834   1.394       .  A
C833        C838   1.401       .  A
C833        H849   1.083       .  S
C834        C835   1.403       .  A
C834        H850   1.084       .  S
C835        C845   1.392       .  A
C835        C836   1.406       .  A
C836        C842   1.413       .  A
C836        C837   1.407       .  A
C837        C839   1.408       .  A
C837        C838   1.414       .  A
C838        C846   1.399       .  A
C839        C848   1.396       .  A
C839        C840   1.404       .  A
C840        C841   1.398       .  A
C840        H851   1.082   1_565  S
C841        C842   1.403       .  A
C841        H852   1.084   1_565  S
C842        C843   1.403       .  A
C843        C844   1.409       .  A
C843        H853   1.083       .  S
C844        C845   1.411       .  A
C845        H854   1.082       .  S
C846        C847   1.402       .  A
C846        H855   1.084       .  S
C847        C848   1.410       .  A
C848        H856   1.084   1_565  S
C857        N858   1.370       .  A
C857       N1076   1.359       .  A
C857       C1085   1.499       .  S
N858        C859   1.365       .  A
C859       N1074   1.366       .  A
C859       C1102   1.498       .  S
N860       C1073   1.365       .  A
N860        C861   1.360       .  A
C861        N862   1.367       .  A
C861        C898   1.487       .  S
N862       C1071   1.360       .  A
C863        N864   1.367       .  A
C863        N868   1.364       .  A
C863        C876   1.497       .  S
N864        C865   1.362       .  A
C865        N866   1.369       .  A
C865        C895   1.497       .  S
N866        C867   1.359       .  A
C867        N868   1.368       .  A
C867        C886   1.501   1_556  S
C869        C870   1.527       .  S
C869        C875   1.529       .  S
C869        C873   1.550       .  S
C869       C1058   1.516       .  S
C870        H877   1.086       .  S
C870        C871   1.355   1_554  D
C871       C1071   1.496       .  S
C871       C1086   1.561       .  S
C872       C1085   1.568       .  S
C872       C1090   1.564       .  S
C872        C874   1.529       .  S
C872        H878   1.111       .  S
C873        H879   1.085       .  S
C873       C1088   1.368   1_554  D
C874       C1034   1.467       .  S
C874       C1087   1.368       .  D
C875        H880   1.088       .  S
C875        C876   1.363   1_554  D
C876       C1086   1.558       .  S
C881        C882   1.556       .  S
C881        C885   1.527       .  S
C881       C1013   1.527       .  S
C882        H889   1.085       .  S
C882       C1097   1.372   1_554  D
C883        C986   1.465       .  S
C883        C884   1.528       .  S
C883       C1096   1.370       .  D
C884       C1100   1.552       .  S
C884        H890   1.111       .  S
C885        H891   1.088       .  S
C885        C886   1.363       .  D
C886       C1098   1.558   1_554  S
C887        H892   1.086       .  S
C887        C888   1.359       .  D
C888       C1073   1.495   1_554  S
C893       C1322   1.533       .  S
C893        C899   1.560   1_554  S
C893        C897   1.515   1_565  S
C893        C941   1.526       .  S
C894       C1321   1.528       .  S
C894        H901   1.089       .  S
C894        C895   1.362   1_554  D
C895       C1538   1.559       .  S
C896       C1537   1.556       .  S
C896        C900   1.536       .  S
C896       C1112   1.561   1_565  S
C896        H902   1.110       .  S
C897        H903   1.088       .  S
C897        C898   1.353   1_554  D
C898       C1110   1.560   1_545  S
C899        H904   1.083   1_556  S
C899       C1114   1.381       .  D
C900        C962   1.488       .  S
C900       C1113   1.379       .  D
O905       Cr923   2.002       .  S
O905        C913   1.262       .  A
O906       C1335   1.255       .  A
C907       O1334   1.253       .  A
C907        O908   1.273   1_565  A
C907        C938   1.481       .  S
O908       Cr924   2.030       .  S
O909       Cr924   1.950       .  S
O909        C910   1.254       .  A
C910       C1010   1.480       .  S
O911      Cr1353   2.021       .  S
O912       Cr925   1.945       .  S
O912        C913   1.248       .  A
C913       C1061   1.471       .  S
O914       Cr923   1.925       .  S
O914        C922   1.255       .  A
O915       C1344   1.265       .  A
C916       O1343   1.267       .  A
C916        O917   1.253   1_565  A
C916        C965   1.471       .  S
O917       Cr924   1.951       .  S
O918       Cr924   2.037       .  S
O918        C919   1.271       .  A
C919        C989   1.472       .  S
O920      Cr1353   1.923       .  S
O921       Cr925   2.038       .  S
O921        C922   1.275       .  A
C922       C1037   1.483       .  S
Cr924       O926   1.783   1_545  S
Cr925      O1339   2.017       .  S
Cr925      O1348   1.923       .  S
C927        C928   1.399       .  A
C927        C932   1.403       .  A
C927        H943   1.084       .  S
C928        C929   1.405       .  A
C928        H944   1.081       .  S
C929        C939   1.398       .  A
C929        C930   1.406       .  A
C930        C936   1.417   1_565  A
C930        C931   1.412       .  A
C931        C933   1.405   1_565  A
C931        C932   1.416       .  A
C932        C940   1.409       .  A
C933        C942   1.396       .  A
C933        C934   1.405       .  A
C934        C935   1.398       .  A
C934        H945   1.084       .  S
C935        C936   1.402       .  A
C935        H946   1.084       .  S
C936        C937   1.408   1_545  A
C937        C938   1.403       .  A
C937        H947   1.084   1_565  S
C938        C939   1.413       .  A
C939        H948   1.084       .  S
C940        C941   1.409       .  A
C940        H949   1.080       .  S
C941        C942   1.413   1_565  A
C942        H950   1.084       .  S
C951        C952   1.400       .  A
C951        C956   1.403       .  A
C951        H967   1.084       .  S
C952        C953   1.405       .  A
C952        H968   1.084       .  S
C953        C963   1.399       .  A
C953        C954   1.408       .  A
C954        C960   1.416       .  A
C954        C955   1.411       .  A
C955        C957   1.408       .  A
C955        C956   1.417       .  A
C956        C964   1.410       .  A
C957        C966   1.396       .  A
C957        C958   1.404       .  A
C958        C959   1.398       .  A
C958        H969   1.084   1_565  S
C959        C960   1.403       .  A
C959        H970   1.084   1_565  S
C960        C961   1.406       .  A
C961        C962   1.405       .  A
C961        H971   1.084       .  S
C962        C963   1.410       .  A
C963        H972   1.083       .  S
C964        C965   1.402       .  A
C964        H973   1.084       .  S
C965        C966   1.407       .  A
C966        H974   1.086       .  S
C975        C976   1.404       .  A
C975        C980   1.405       .  A
C975        H991   1.083       .  S
C976        C977   1.406       .  A
C976        H992   1.083       .  S
C977        C987   1.407       .  A
C977        C978   1.411       .  A
C978        C979   1.409       .  A
C979        C980   1.414       .  A
C980        C988   1.412       .  A
C981        C990   1.390       .  A
C981        C982   1.401       .  A
C982        C983   1.392       .  A
C982        H993   1.084       .  S
C983        C984   1.400       .  A
C983        H994   1.083       .  S
C984        C985   1.392       .  A
C985        H995   1.084       .  S
C986        C987   1.406       .  A
C987        H996   1.084       .  S
C988        C989   1.407       .  A
C988        H997   1.084       .  S
C990        H998   1.086       .  S
C999       C1000   1.398       .  A
C999       C1004   1.405       .  A
C999       H1015   1.083       .  S
C1000      C1001   1.402       .  A
C1000      H1016   1.084       .  S
C1001      C1011   1.406       .  A
C1002      C1008   1.407       .  A
C1002      C1003   1.411       .  A
C1003      C1005   1.413       .  A
C1004      C1012   1.399       .  A
C1005      C1014   1.405       .  A
C1005      C1006   1.403       .  A
C1006      C1007   1.398       .  A
C1006      H1017   1.084       .  S
C1007      C1008   1.404       .  A
C1007      H1018   1.082       .  S
C1008      C1009   1.398       .  A
C1009      C1010   1.411       .  A
C1009      H1019   1.084       .  S
C1011      H1020   1.084       .  S
C1012      H1021   1.080       .  S
C1013      C1014   1.409       .  A
C1014      H1022   1.083       .  S
C1023      C1024   1.405       .  A
C1023      C1028   1.406       .  A
C1023      H1039   1.083       .  S
C1024      C1025   1.406       .  A
C1024      H1040   1.084       .  S
C1025      C1035   1.409       .  A
C1025      C1026   1.411       .  A
C1026      C1032   1.413       .  A
C1026      C1027   1.410       .  A
C1027      C1029   1.407       .  A
C1027      C1028   1.414       .  A
C1028      C1036   1.415       .  A
C1029      C1038   1.388       .  A
C1029      C1030   1.401       .  A
C1030      C1031   1.391       .  A
C1030      H1041   1.084       .  S
C1031      C1032   1.399       .  A
C1031      H1042   1.084       .  S
C1032      C1033   1.392       .  A
C1033      C1034   1.397       .  A
C1033      H1043   1.085       .  S
C1034      C1035   1.407       .  A
C1035      H1044   1.084       .  S
C1036      C1037   1.411       .  A
C1036      H1045   1.084       .  S
C1037      C1038   1.408       .  A
C1038      H1046   1.085       .  S
C1047      C1048   1.394       .  A
C1047      C1052   1.401       .  A
C1047      H1063   1.083       .  S
C1048      C1049   1.403       .  A
C1048      H1064   1.084       .  S
C1049      C1059   1.392       .  A
C1049      C1050   1.406       .  A
C1050      C1056   1.413       .  A
C1050      C1051   1.407       .  A
C1051      C1053   1.408       .  A
C1051      C1052   1.414       .  A
C1052      C1060   1.399       .  A
C1053      C1062   1.397       .  A
C1053      C1054   1.404       .  A
C1054      C1055   1.398       .  A
C1054      H1065   1.082       .  S
C1055      C1056   1.403       .  A
C1055      H1066   1.084       .  S
C1056      C1057   1.403       .  A
C1057      C1058   1.409       .  A
C1057      H1067   1.083       .  S
C1058      C1059   1.411       .  A
C1059      H1068   1.082       .  S
C1060      C1061   1.401       .  A
C1060      H1069   1.084       .  S
C1061      C1062   1.410       .  A
C1062      H1070   1.084       .  S
C1071      N1072   1.369       .  A
N1072      C1073   1.363       .  A
N1074      C1075   1.361       .  A
C1075      N1076   1.367       .  A
C1075      C1112   1.489       .  S
C1077      N1078   1.371       .  A
C1077      N1082   1.365       .  A
C1077      C1090   1.502       .  S
N1078      C1079   1.362       .  A
C1079      N1080   1.364       .  A
C1079      C1109   1.499       .  S
N1080      C1081   1.357       .  A
C1081      N1082   1.369       .  A
C1081      C1100   1.491       .  S
C1083      C1084   1.521       .  S
C1083      C1089   1.527       .  S
C1083      C1087   1.558       .  S
C1083      C1272   1.514       .  S
C1084      H1091   1.088       .  S
C1084      C1085   1.354       .  D
C1086      C1088   1.533       .  S
C1086      H1092   1.111       .  S
C1087      H1093   1.084       .  S
C1088      C1248   1.462       .  S
C1089      H1094   1.089       .  S
C1089      C1090   1.363       .  D
C1095      C1096   1.554       .  S
C1095      C1099   1.528       .  S
C1095      C1227   1.529       .  S
C1096      H1103   1.086       .  S
C1097      C1200   1.465       .  S
C1097      C1098   1.528       .  S
C1098      H1104   1.111       .  S
C1099      H1105   1.088       .  S
C1099      C1100   1.360       .  D
C1101      H1106   1.084       .  S
C1101      C1102   1.362       .  D
C1107      C1536   1.531       .  S
C1107      C1113   1.562       .  S
C1107      C1111   1.513   1_565  S
C1107      C1155   1.526   1_565  S
C1108      C1535   1.532       .  S
C1108      H1115   1.089       .  S
C1108      C1109   1.365       .  D
C1109      C1324   1.555       .  S
C1110      C1323   1.554       .  S
C1110      C1114   1.537       .  S
C1110      H1116   1.110       .  S
C1111      H1117   1.088       .  S
C1111      C1112   1.353       .  D
C1113      H1118   1.082       .  S
C1114      C1176   1.487       .  S
O1119     Cr1137   2.013       .  S
O1119      C1127   1.266       .  A
O1120      C1549   1.254       .  A
C1121      O1548   1.255       .  A
C1121      O1122   1.272   1_565  A
C1121      C1152   1.477       .  S
O1122     Cr1138   2.027       .  S
O1123     Cr1138   1.947       .  S
O1123      C1124   1.256       .  A
C1124      C1224   1.482       .  S
O1125     Cr1567   2.010   1_455  S
O1126     Cr1139   1.930       .  S
O1126      C1127   1.249       .  A
C1127      C1275   1.468       .  S
O1128     Cr1137   1.928       .  S
O1128      C1136   1.254       .  A
O1129      C1558   1.271       .  A
C1130      O1557   1.267       .  A
C1130      O1131   1.253   1_565  A
C1130      C1179   1.469       .  S
O1131     Cr1138   1.950       .  S
O1132     Cr1138   2.023       .  S
O1132      C1133   1.268       .  A
C1133      C1203   1.473       .  S
O1134     Cr1567   1.921   1_455  S
O1135     Cr1139   2.023       .  S
O1135      C1136   1.270       .  A
C1136      C1251   1.474       .  S
Cr1138     O1140   1.782       .  S
Cr1139     O1553   2.015   1_655  S
Cr1139     O1562   1.919       .  S
C1141      C1142   1.398       .  A
C1141      C1146   1.403       .  A
C1141      H1157   1.083       .  S
C1142      C1143   1.403       .  A
C1142      H1158   1.081       .  S
C1143      C1153   1.398       .  A
C1143      C1144   1.407   1_565  A
C1144      C1150   1.415       .  A
C1144      C1145   1.412       .  A
C1145      C1147   1.406       .  A
C1145      C1146   1.414   1_545  A
C1146      C1154   1.407       .  A
C1147      C1156   1.398       .  A
C1147      C1148   1.405       .  A
C1148      C1149   1.399       .  A
C1148      H1159   1.084       .  S
C1149      C1150   1.403       .  A
C1149      H1160   1.084       .  S
C1150      C1151   1.407       .  A
C1151      C1152   1.403   1_545  A
C1151      H1161   1.084       .  S
C1152      C1153   1.410       .  A
C1153      H1162   1.085       .  S
C1154      C1155   1.408   1_565  A
C1154      H1163   1.079       .  S
C1155      C1156   1.413       .  A
C1156      H1164   1.085       .  S
C1165      C1166   1.400       .  A
C1165      C1170   1.403       .  A
C1165      H1181   1.084       .  S
C1166      C1167   1.405       .  A
C1166      H1182   1.084       .  S
C1167      C1177   1.400       .  A
C1167      C1168   1.408       .  A
C1168      C1174   1.415       .  A
C1168      C1169   1.411       .  A
C1169      C1171   1.408       .  A
C1169      C1170   1.417       .  A
C1170      C1178   1.409       .  A
C1171      C1180   1.395       .  A
C1171      C1172   1.404   1_565  A
C1172      C1173   1.397   1_545  A
C1172      H1183   1.084       .  S
C1173      C1174   1.403       .  A
C1173      H1184   1.084   1_565  S
C1174      C1175   1.406       .  A
C1175      C1176   1.404       .  A
C1175      H1185   1.084   1_565  S
C1176      C1177   1.410       .  A
C1177      H1186   1.083       .  S
C1178      C1179   1.402       .  A
C1178      H1187   1.084       .  S
C1179      C1180   1.406       .  A
C1180      H1188   1.086   1_565  S
C1189      C1190   1.403       .  A
C1189      C1194   1.405       .  A
C1189      H1205   1.083       .  S
C1190      C1191   1.405       .  A
C1190      H1206   1.083       .  S
C1191      C1201   1.407       .  A
C1191      C1192   1.412       .  A
C1192      C1193   1.409       .  A
C1193      C1194   1.413       .  A
C1194      C1202   1.410       .  A
C1195      C1204   1.394       .  A
C1195      C1196   1.402   1_455  A
C1196      C1197   1.394       .  A
C1196      H1207   1.084       .  S
C1197      C1198   1.401       .  A
C1197      H1208   1.084       .  S
C1198      C1199   1.395       .  A
C1199      H1209   1.085       .  S
C1200      C1201   1.405       .  A
C1201      H1210   1.084       .  S
C1202      C1203   1.407       .  A
C1202      H1211   1.084       .  S
C1204      H1212   1.086   1_455  S
C1213      C1214   1.398       .  A
C1213      C1218   1.404       .  A
C1213      H1229   1.084       .  S
C1214      C1215   1.402   1_655  A
C1214      H1230   1.083       .  S
C1215      C1225   1.404       .  A
C1216      C1222   1.408       .  A
C1216      C1217   1.411       .  A
C1217      C1219   1.411       .  A
C1218      C1226   1.400       .  A
C1219      C1228   1.402       .  A
C1219      C1220   1.403       .  A
C1220      C1221   1.397       .  A
C1220      H1231   1.084       .  S
C1221      C1222   1.404       .  A
C1221      H1232   1.084       .  S
C1222      C1223   1.398       .  A
C1223      C1224   1.412       .  A
C1223      H1233   1.084       .  S
C1225      H1234   1.084   1_455  S
C1226      H1235   1.078       .  S
C1227      C1228   1.409       .  A
C1228      H1236   1.084       .  S
C1237      C1238   1.402       .  A
C1237      C1242   1.405       .  A
C1237      H1253   1.083       .  S
C1238      C1239   1.405       .  A
C1238      H1254   1.084       .  S
C1239      C1249   1.406       .  A
C1239      C1240   1.412       .  A
C1240      C1246   1.412       .  A
C1240      C1241   1.407       .  A
C1241      C1243   1.408       .  A
C1241      C1242   1.413       .  A
C1242      C1250   1.409       .  A
C1243      C1252   1.389       .  A
C1243      C1244   1.402       .  A
C1244      C1245   1.391       .  A
C1244      H1255   1.084       .  S
C1245      C1246   1.400       .  A
C1245      H1256   1.084       .  S
C1246      C1247   1.391       .  A
C1247      C1248   1.397       .  A
C1247      H1257   1.085       .  S
C1248      C1249   1.404       .  A
C1249      H1258   1.084       .  S
C1250      C1251   1.407       .  A
C1250      H1259   1.084       .  S
C1251      C1252   1.406       .  A
C1252      H1260   1.085       .  S
C1261      C1262   1.397       .  A
C1261      C1266   1.402       .  A
C1261      H1277   1.083       .  S
C1262      C1263   1.404       .  A
C1262      H1278   1.084       .  S
C1263      C1273   1.394       .  A
C1263      C1264   1.406       .  A
C1264      C1270   1.414       .  A
C1264      C1265   1.405       .  A
C1265      C1267   1.407       .  A
C1265      C1266   1.415       .  A
C1266      C1274   1.402       .  A
C1267      C1276   1.390       .  A
C1267      C1268   1.403       .  A
C1268      C1269   1.394       .  A
C1268      H1279   1.082       .  S
C1269      C1270   1.402       .  A
C1269      H1280   1.084       .  S
C1270      C1271   1.399       .  A
C1271      C1272   1.405       .  A
C1271      H1281   1.081       .  S
C1272      C1273   1.412       .  A
C1273      H1282   1.084       .  S
C1274      C1275   1.402       .  A
C1274      H1283   1.084       .  S
C1275      C1276   1.409       .  A
C1276      H1284   1.085       .  S
C1285      N1286   1.370       .  A
C1285      N1504   1.360       .  A
C1285      C1513   1.498       .  S
N1286      C1287   1.364       .  A
C1287      N1502   1.369       .  A
C1287      C1530   1.503       .  S
N1288      C1501   1.366       .  A
N1288      C1289   1.361       .  A
C1289      N1290   1.369       .  A
C1289      C1326   1.492       .  S
N1290      C1499   1.362       .  A
C1291      N1292   1.370       .  A
C1291      N1296   1.363       .  A
C1291      C1304   1.496       .  S
N1292      C1293   1.363       .  A
C1293      N1294   1.365       .  A
C1293      C1323   1.498       .  S
N1294      C1295   1.356       .  A
C1295      N1296   1.366       .  A
C1295      C1314   1.490       .  S
C1297      C1298   1.524       .  S
C1297      C1303   1.525       .  S
C1297      C1301   1.554       .  S
C1297      C1486   1.516       .  S
C1298      H1305   1.087       .  S
C1298      C1299   1.356   1_554  D
C1299      C1499   1.500       .  S
C1299      C1514   1.569       .  S
C1300      C1513   1.567       .  S
C1300      C1518   1.561       .  S
C1300      C1302   1.531       .  S
C1300      H1306   1.111       .  S
C1301      H1307   1.085       .  S
C1301      C1516   1.369   1_554  D
C1302      C1462   1.470       .  S
C1302      C1515   1.372       .  D
C1303      H1308   1.089       .  S
C1303      C1304   1.362   1_554  D
C1304      C1514   1.561       .  S
C1309      C1310   1.554       .  S
C1309      C1313   1.529       .  S
C1309      C1441   1.532       .  S
C1310      H1317   1.086       .  S
C1310      C1525   1.371   1_554  D
C1311      C1414   1.471       .  S
C1311      C1312   1.530       .  S
C1311      C1524   1.375       .  D
C1312      C1528   1.552       .  S
C1312      H1318   1.111       .  S
C1313      H1319   1.088       .  S
C1313      C1314   1.362   1_554  D
C1314      C1526   1.549       .  S
C1315      H1320   1.083       .  S
C1315      C1316   1.363   1_554  D
C1316      C1501   1.497       .  S
C1321      C1327   1.566   1_554  S
C1321      C1325   1.512       .  S
C1321      C1369   1.526       .  S
C1322      H1329   1.089       .  S
C1322      C1323   1.365   1_554  D
C1324      C1328   1.537       .  S
C1324      C1540   1.562       .  S
C1324      H1330   1.110       .  S
C1325      H1331   1.088       .  S
C1325      C1326   1.353   1_554  D
C1326      C1538   1.567       .  S
C1327      H1332   1.082   1_556  S
C1327      C1542   1.380       .  D
C1328      C1390   1.488       .  S
C1328      C1541   1.380       .  D
O1333     Cr1351   2.011       .  S
O1333      C1341   1.265       .  A
C1335      O1336   1.274       .  A
C1335      C1366   1.479       .  S
O1336     Cr1352   2.036       .  S
O1337     Cr1352   1.958       .  S
O1337      C1338   1.256       .  A
C1338      C1438   1.483       .  S
O1340     Cr1353   1.940   1_565  S
O1340      C1341   1.250       .  A
C1341      C1489   1.474       .  S
O1342     Cr1351   1.930       .  S
O1342      C1350   1.255       .  A
C1344      O1345   1.254       .  A
C1344      C1393   1.471       .  S
O1345     Cr1352   1.959       .  S
O1346     Cr1352   2.037       .  S
O1346      C1347   1.272       .  A
C1347      C1417   1.474       .  S
O1349     Cr1353   2.030   1_565  S
O1349      C1350   1.272       .  A
C1350      C1465   1.485       .  S
Cr1352     O1354   1.784       .  S
C1355      C1356   1.396       .  A
C1355      C1360   1.402       .  A
C1355      H1371   1.083       .  S
C1356      C1357   1.403       .  A
C1356      H1372   1.082       .  S
C1357      C1367   1.394       .  A
C1357      C1358   1.406       .  A
C1358      C1364   1.417       .  A
C1358      C1359   1.412       .  A
C1359      C1361   1.406       .  A
C1359      C1360   1.415       .  A
C1360      C1368   1.405       .  A
C1361      C1370   1.399       .  A
C1361      C1362   1.406       .  A
C1362      C1363   1.401       .  A
C1362      H1373   1.084       .  S
C1363      C1364   1.404       .  A
C1363      H1374   1.084       .  S
C1364      C1365   1.412       .  A
C1365      C1366   1.405       .  A
C1365      H1375   1.084       .  S
C1366      C1367   1.409       .  A
C1367      H1376   1.085       .  S
C1368      C1369   1.406       .  A
C1368      H1377   1.079       .  S
C1369      C1370   1.416       .  A
C1370      H1378   1.085       .  S
C1379      C1380   1.400       .  A
C1379      C1384   1.403       .  A
C1379      H1395   1.084       .  S
C1380      C1381   1.405       .  A
C1380      H1396   1.084       .  S
C1381      C1391   1.400       .  A
C1381      C1382   1.407       .  A
C1382      C1388   1.415       .  A
C1382      C1383   1.411       .  A
C1383      C1385   1.408       .  A
C1383      C1384   1.417       .  A
C1384      C1392   1.409       .  A
C1385      C1394   1.396       .  A
C1385      C1386   1.404       .  A
C1386      C1387   1.398       .  A
C1386      H1397   1.084       .  S
C1387      C1388   1.402       .  A
C1387      H1398   1.084       .  S
C1388      C1389   1.407       .  A
C1389      C1390   1.405       .  A
C1389      H1399   1.084       .  S
C1390      C1391   1.410       .  A
C1391      H1400   1.083       .  S
C1392      C1393   1.402       .  A
C1392      H1401   1.084       .  S
C1393      C1394   1.407       .  A
C1394      H1402   1.085       .  S
C1403      C1404   1.404       .  A
C1403      C1408   1.405       .  A
C1403      H1419   1.083       .  S
C1404      C1405   1.406       .  A
C1404      H1420   1.083       .  S
C1405      C1415   1.409       .  A
C1405      C1406   1.412       .  A
C1406      C1407   1.411       .  A
C1407      C1408   1.413       .  A
C1408      C1416   1.412       .  A
C1409      C1418   1.392       .  A
C1409      C1410   1.402       .  A
C1410      C1411   1.393       .  A
C1410      H1421   1.084       .  S
C1411      C1412   1.401       .  A
C1411      H1422   1.084       .  S
C1412      C1413   1.393       .  A
C1413      H1423   1.084       .  S
C1414      C1415   1.407       .  A
C1415      H1424   1.084       .  S
C1416      C1417   1.408       .  A
C1416      H1425   1.084       .  S
C1418      H1426   1.086       .  S
C1427      C1428   1.399       .  A
C1427      C1432   1.405       .  A
C1427      H1443   1.083       .  S
C1428      C1429   1.403       .  A
C1428      H1444   1.083       .  S
C1429      C1439   1.406       .  A
C1430      C1436   1.409       .  A
C1430      C1431   1.413       .  A
C1431      C1433   1.411       .  A
C1432      C1440   1.401       .  A
C1433      C1442   1.406       .  A
C1433      C1434   1.405       .  A
C1434      C1435   1.400       .  A
C1434      H1445   1.084       .  S
C1435      C1436   1.405       .  A
C1435      H1446   1.084       .  S
C1436      C1437   1.402       .  A
C1437      C1438   1.412       .  A
C1437      H1447   1.084       .  S
C1439      H1448   1.084       .  S
C1440      H1449   1.077       .  S
C1441      C1442   1.412       .  A
C1442      H1450   1.084       .  S
C1451      C1452   1.406       .  A
C1451      C1456   1.406       .  A
C1451      H1467   1.083       .  S
C1452      C1453   1.406       .  A
C1452      H1468   1.084       .  S
C1453      C1463   1.411       .  A
C1453      C1454   1.412       .  A
C1454      C1460   1.412       .  A
C1454      C1455   1.411       .  A
C1455      C1457   1.407       .  A
C1455      C1456   1.413       .  A
C1456      C1464   1.415       .  A
C1457      C1466   1.390       .  A
C1457      C1458   1.401       .  A
C1458      C1459   1.391       .  A
C1458      H1469   1.084       .  S
C1459      C1460   1.400       .  A
C1459      H1470   1.084       .  S
C1460      C1461   1.392       .  A
C1461      C1462   1.398       .  A
C1461      H1471   1.085       .  S
C1462      C1463   1.408       .  A
C1463      H1472   1.084       .  S
C1464      C1465   1.411       .  A
C1464      H1473   1.083       .  S
C1465      C1466   1.408       .  A
C1466      H1474   1.085       .  S
C1475      C1476   1.397       .  A
C1475      C1480   1.402       .  A
C1475      H1491   1.083       .  S
C1476      C1477   1.404       .  A
C1476      H1492   1.084       .  S
C1477      C1487   1.394       .  A
C1477      C1478   1.407       .  A
C1478      C1484   1.413       .  A
C1478      C1479   1.407       .  A
C1479      C1481   1.408       .  A
C1479      C1480   1.414       .  A
C1480      C1488   1.402       .  A
C1481      C1490   1.395       .  A
C1481      C1482   1.404       .  A
C1482      C1483   1.396       .  A
C1482      H1493   1.083   1_565  S
C1483      C1484   1.403       .  A
C1483      H1494   1.084       .  S
C1484      C1485   1.401       .  A
C1485      C1486   1.408       .  A
C1485      H1495   1.082       .  S
C1486      C1487   1.411       .  A
C1487      H1496   1.083       .  S
C1488      C1489   1.403       .  A
C1488      H1497   1.084       .  S
C1489      C1490   1.410       .  A
C1490      H1498   1.085       .  S
C1499      N1500   1.369       .  A
N1500      C1501   1.364       .  A
N1502      C1503   1.364       .  A
C1503      N1504   1.367       .  A
C1503      C1540   1.494       .  S
C1505      N1506   1.369       .  A
C1505      N1510   1.363       .  A
C1505      C1518   1.500       .  S
N1506      C1507   1.361       .  A
C1507      N1508   1.365       .  A
C1507      C1537   1.497       .  S
N1508      C1509   1.358       .  A
C1509      N1510   1.369       .  A
C1509      C1528   1.493       .  S
C1511      C1512   1.522       .  S
C1511      C1517   1.527       .  S
C1511      C1515   1.559       .  S
C1511      C1700   1.516       .  S
C1512      H1519   1.088       .  S
C1512      C1513   1.353       .  D
C1514      C1516   1.531       .  S
C1514      H1520   1.111       .  S
C1515      H1521   1.084       .  S
C1516      C1676   1.466       .  S
C1517      H1522   1.089       .  S
C1517      C1518   1.362       .  D
C1523      C1524   1.559       .  S
C1523      C1527   1.527       .  S
C1523      C1655   1.529       .  S
C1524      H1531   1.085       .  S
C1525      C1628   1.467       .  S
C1525      C1526   1.530       .  S
C1526      H1532   1.111       .  S
C1527      H1533   1.088       .  S
C1527      C1528   1.361       .  D
C1529      H1534   1.086       .  S
C1529      C1530   1.359       .  D
C1535      C1541   1.561       .  S
C1535      C1539   1.520       .  S
C1535      C1583   1.531       .  S
C1536      H1543   1.088       .  S
C1536      C1537   1.365       .  D
C1538      C1542   1.535       .  S
C1538      H1544   1.110       .  S
C1539      H1545   1.088       .  S
C1539      C1540   1.356       .  D
C1541      H1546   1.083       .  S
C1542      C1604   1.492       .  S
O1547     Cr1565   2.012   1_655  S
O1547      C1555   1.265       .  A
C1549      O1550   1.270       .  A
C1549      C1580   1.484       .  S
O1550     Cr1566   2.023       .  S
O1551     Cr1566   1.950       .  S
O1551      C1552   1.256       .  A
C1552      C1652   1.483       .  S
O1554     Cr1567   1.939       .  S
O1554      C1555   1.249   1_545  A
C1555      C1703   1.471       .  S
O1556     Cr1565   1.930   1_655  S
O1556      C1564   1.255       .  A
C1558      O1559   1.253       .  A
C1558      C1607   1.476       .  S
O1559     Cr1566   1.947       .  S
O1560     Cr1566   2.028       .  S
O1560      C1561   1.268       .  A
C1561      C1631   1.474       .  S
O1563     Cr1567   2.030   1_565  S
O1563      C1564   1.272       .  A
C1564      C1679   1.479       .  S
Cr1566     O1568   1.783       .  S
C1569      C1570   1.402       .  A
C1569      C1574   1.405       .  A
C1569      H1585   1.084       .  S
C1570      C1571   1.406       .  A
C1570      H1586   1.083       .  S
C1571      C1581   1.403       .  A
C1571      C1572   1.408       .  A
C1572      C1578   1.415       .  A
C1572      C1573   1.414       .  A
C1573      C1575   1.407       .  A
C1573      C1574   1.414       .  A
C1574      C1582   1.412       .  A
C1575      C1584   1.397       .  A
C1575      C1576   1.404       .  A
C1576      C1577   1.398       .  A
C1576      H1587   1.084       .  S
C1577      C1578   1.402       .  A
C1577      H1588   1.084       .  S
C1578      C1579   1.406       .  A
C1579      C1580   1.404       .  A
C1579      H1589   1.084       .  S
C1580      C1581   1.413       .  A
C1581      H1590   1.085       .  S
C1582      C1583   1.412       .  A
C1582      H1591   1.080       .  S
C1583      C1584   1.412       .  A
C1584      H1592   1.085       .  S
C1593      C1594   1.401       .  A
C1593      C1598   1.403       .  A
C1593      H1609   1.084       .  S
C1594      C1595   1.406       .  A
C1594      H1610   1.084       .  S
C1595      C1605   1.401       .  A
C1595      C1596   1.408       .  A
C1596      C1602   1.416       .  A
C1596      C1597   1.414       .  A
C1597      C1599   1.407       .  A
C1597      C1598   1.418       .  A
C1598      C1606   1.412       .  A
C1599      C1608   1.398       .  A
C1599      C1600   1.405       .  A
C1600      C1601   1.399       .  A
C1600      H1611   1.084       .  S
C1601      C1602   1.403       .  A
C1601      H1612   1.083       .  S
C1602      C1603   1.409       .  A
C1603      C1604   1.406       .  A
C1603      H1613   1.084       .  S
C1604      C1605   1.411       .  A
C1605      H1614   1.083       .  S
C1606      C1607   1.403       .  A
C1606      H1615   1.084       .  S
C1607      C1608   1.409       .  A
C1608      H1616   1.086       .  S
C1617      C1618   1.404       .  A
C1617      C1622   1.405       .  A
C1617      H1633   1.083       .  S
C1618      C1619   1.406       .  A
C1618      H1634   1.083       .  S
C1619      C1629   1.408       .  A
C1619      C1620   1.412       .  A
C1620      C1621   1.409       .  A
C1621      C1622   1.413       .  A
C1622      C1630   1.411       .  A
C1623      C1632   1.390   1_655  A
C1623      C1624   1.401       .  A
C1624      C1625   1.392       .  A
C1624      H1635   1.084       .  S
C1625      C1626   1.400       .  A
C1625      H1636   1.083       .  S
C1626      C1627   1.393       .  A
C1627      H1637   1.084       .  S
C1628      C1629   1.406       .  A
C1629      H1638   1.084       .  S
C1630      C1631   1.408       .  A
C1630      H1639   1.084       .  S
C1632      H1640   1.086   1_455  S
C1641      C1642   1.398       .  A
C1641      C1646   1.405       .  A
C1641      H1657   1.084       .  S
C1642      C1643   1.402   1_655  A
C1642      H1658   1.083       .  S
C1643      C1653   1.406       .  A
C1644      C1650   1.407       .  A
C1644      C1645   1.412       .  A
C1645      C1647   1.413       .  A
C1646      C1654   1.399       .  A
C1647      C1656   1.406       .  A
C1647      C1648   1.404       .  A
C1648      C1649   1.399       .  A
C1648      H1659   1.083       .  S
C1649      C1650   1.404       .  A
C1649      H1660   1.083       .  S
C1650      C1651   1.399       .  A
C1651      C1652   1.412       .  A
C1651      H1661   1.084       .  S
C1653      H1662   1.084   1_455  S
C1654      H1663   1.082       .  S
C1655      C1656   1.409       .  A
C1656      H1664   1.083       .  S
C1665      C1666   1.404       .  A
C1665      C1670   1.406       .  A
C1665      H1681   1.083   1_565  S
C1666      C1667   1.406       .  A
C1666      H1682   1.084       .  S
C1667      C1677   1.408       .  A
C1667      C1668   1.411       .  A
C1668      C1674   1.413       .  A
C1668      C1669   1.409       .  A
C1669      C1671   1.407       .  A
C1669      C1670   1.414       .  A
C1670      C1678   1.412       .  A
C1671      C1680   1.388       .  A
C1671      C1672   1.402       .  A
C1672      C1673   1.391       .  A
C1672      H1683   1.083       .  S
C1673      C1674   1.399       .  A
C1673      H1684   1.084       .  S
C1674      C1675   1.392       .  A
C1675      C1676   1.396       .  A
C1675      H1685   1.086       .  S
C1676      C1677   1.407       .  A
C1677      H1686   1.084       .  S
C1678      C1679   1.409       .  A
C1678      H1687   1.084       .  S
C1679      C1680   1.407       .  A
C1680      H1688   1.084       .  S
C1689      C1690   1.397       .  A
C1689      C1694   1.401       .  A
C1689      H1705   1.083       .  S
C1690      C1691   1.404       .  A
C1690      H1706   1.084       .  S
C1691      C1701   1.393       .  A
C1691      C1692   1.406       .  A
C1692      C1698   1.414       .  A
C1692      C1693   1.407       .  A
C1693      C1695   1.406       .  A
C1693      C1694   1.415       .  A
C1694      C1702   1.402       .  A
C1695      C1704   1.393       .  A
C1695      C1696   1.403   1_565  A
C1696      C1697   1.396   1_545  A
C1696      H1707   1.080       .  S
C1697      C1698   1.402       .  A
C1697      H1708   1.084   1_565  S
C1698      C1699   1.402       .  A
C1699      C1700   1.406       .  A
C1699      H1709   1.082       .  S
C1700      C1701   1.412       .  A
C1701      H1710   1.084       .  S
C1702      C1703   1.402       .  A
C1702      H1711   1.084       .  S
C1703      C1704   1.409       .  A
C1704      H1712   1.084   1_565  S
