geometry optimzed in LAMMPS
_audit_creation_date              2020-11-30 
_audit_creation_method            'lammps2cif' 
_symmetry_space_group_name_H-M    'P1' 
_symmetry_Int_Tables_number       1 
_symmetry_cell_setting            triclinic 
loop_ 
_symmetry_equiv_pos_as_xyz 
  x,y,z 
_cell_length_a                    27.57631709 
_cell_length_b                    33.650882734903945 
_cell_length_c                    42.79232847500219 
_cell_angle_alpha                 90.22504419036962 
_cell_angle_beta                  90.16986331079566 
_cell_angle_gamma                 89.82369925662466 
loop_ 
_atom_site_label 
_atom_site_type_symbol 
_atom_site_fract_x 
_atom_site_fract_y 
_atom_site_fract_z 
_atom_site_charge 
N1          N  0.15259024  0.79877960  0.43657036    -0.03600
C2          C  0.17935707  0.76545527  0.43102377    -0.01000
C3          C  0.19244541  0.74759465  0.45886995    -0.23900
C4          C  0.17320143  0.77034963  0.48236298    -0.24100
C5          C  0.14903436  0.80138520  0.46818396    -0.01100
H6          H  0.21385385  0.72084482  0.46177118     0.12700
H7          H  0.17528055  0.76430859  0.50715817     0.12700
N8          N  0.72901664  0.81236351  0.04196054    -0.03600
C9          C  0.70479889  0.77762730  0.04523923    -0.01000
C10         C  0.69196076  0.76273186  0.01617361    -0.23900
C11         C  0.70873383  0.78917316  0.99442176    -0.24100
C12         C  0.73142942  0.81918304  0.01089427    -0.01100
H13         H  0.67170596  0.73589768  0.01132756     0.12700
H14         H  0.70546626  0.78652336  0.96928853     0.12700
O15         O  0.85691510  0.82130678  0.71994525    -0.81000
O16         O  0.99842862  0.93673540  0.79358915    -0.65700
O17         O  0.89214126  0.89300302  0.74719514    -1.12300
C18         C  0.00144635  0.90564362  0.66177182     1.05900
O19         O  0.01009879  0.98343959  0.75799728    -0.78900
O20         O  0.96221117  0.98517801  0.70220264    -0.66500
Ni21       Ni  0.85989140  0.84594842  0.76069247     1.34900
C22         C  0.91917209  0.97647624  0.69396391     0.84600
O23         O  0.90913244  0.91565621  0.80977630    -0.79400
O24         O  0.85687544  0.86543316  0.80277684    -0.89700
C25         C  0.01568122  0.97016624  0.78562855     0.84200
O26         O  0.91708036  0.81611419  0.76934250    -0.67900
O27         O  0.02528877  0.93010536  0.67870311    -0.87200
C28         C  0.95834979  0.82581427  0.78011730     0.85000
C29         C  0.87557187  0.89293205  0.81939041     1.06600
H30         H  0.00283186  0.88857245  0.73437642     0.38400
O31         O  0.97947771  0.90995753  0.73298870    -1.09900
O32         O  0.90128837  0.94191777  0.69722345    -0.66500
Ni33       Ni  0.92663948  0.89056737  0.70861302     1.26300
O34         O  0.97165486  0.86190398  0.78338973    -0.66700
O35         O  0.96271223  0.88860716  0.67063872    -0.79000
C36         C  0.85440936  0.83561279  0.69253816     0.84400
O37         O  0.87323808  0.86884003  0.68590215    -0.66200
Ni38       Ni  0.01517019  0.95489955  0.71882741     1.27400
Ni39       Ni  0.94513401  0.91323935  0.77160891     1.26100
H40         H  0.86776074  0.91363093  0.74599451     0.39000
N41         N  0.18305102  0.61632646  0.91208116    -0.03600
C42         C  0.13745305  0.63080079  0.90716093    -0.01000
C43         C  0.11380342  0.63641915  0.93530346    -0.23900
C44         C  0.14574089  0.62589920  0.95835558    -0.24100
C45         C  0.18780617  0.61378833  0.94370104    -0.01100
H46         H  0.07836037  0.64957720  0.93882402     0.12700
H47         H  0.13981658  0.62859477  0.98326950     0.12700
N48         N  0.67297412  0.65527748  0.50986610    -0.03600
C49         C  0.71260515  0.67854588  0.51492147    -0.01000
C50         C  0.72934319  0.69363835  0.48695674    -0.23900
C51         C  0.69892330  0.67984296  0.46399025    -0.24100
C52         C  0.66479767  0.65640963  0.47851435    -0.01100
H53         H  0.75933296  0.71387638  0.48374303     0.12700
H54         H  0.70149762  0.68606342  0.43925601     0.12700
O55         O  0.36586245  0.64707638  0.22976933    -0.81000
O56         O  0.49254213  0.51431766  0.16007335    -0.65700
O57         O  0.39747106  0.57343719  0.20499455    -1.12300
C58         C  0.50012152  0.54739883  0.29236084     1.05900
O59         O  0.50092381  0.46686037  0.19561561    -0.78900
O60         O  0.44402420  0.47261751  0.24831276    -0.66500
Ni61       Ni  0.38061189  0.62508684  0.18901059     1.34900
C62         C  0.40574156  0.48937459  0.25851762     0.84600
O63         O  0.40686061  0.54558433  0.14409773    -0.79400
O64         O  0.38893298  0.61013372  0.14567492    -0.89700
C65         C  0.50659172  0.47981005  0.16781746     0.84200
O66         O  0.44581372  0.64374677  0.19099750    -0.67900
O67         O  0.51522163  0.51680229  0.27739255    -0.87200
C68         C  0.48138502  0.62762341  0.17687931     0.85000
C69         C  0.39129426  0.57710355  0.13118336     1.06600
H70         H  0.50889999  0.56124598  0.21789454     0.38400
O71         O  0.48093440  0.54423868  0.21993037    -1.09900
O72         O  0.39871415  0.52671744  0.25706253    -0.66500
Ni73       Ni  0.43352780  0.57284158  0.24332600     1.26300
O74         O  0.48155964  0.59097271  0.16891230    -0.66700
O75         O  0.47041749  0.57236125  0.28089266    -0.79000
C76         C  0.36400759  0.63364201  0.25751392     0.84400
O77         O  0.38564989  0.60202494  0.26555444    -0.66200
Ni78       Ni  0.50512245  0.49450559  0.23577173     1.27400
Ni79       Ni  0.44487942  0.54453611  0.18172144     1.26100
H80         H  0.36837027  0.55768874  0.20680284     0.39000
N81         N  0.20332652  0.33808476  0.41155599    -0.03600
C82         C  0.16574141  0.31230974  0.40896684    -0.01000
C83         C  0.14514638  0.30578285  0.43787082    -0.23900
C84         C  0.17035505  0.32865476  0.45893151    -0.24100
C85         C  0.20590964  0.34814928  0.44228955    -0.01100
H86         H  0.11573806  0.28569436  0.44315376     0.12700
H87         H  0.16494645  0.32944979  0.48396965     0.12700
N88         N  0.68656717  0.31841751  0.00591353    -0.03600
C89         C  0.71713580  0.28747341  0.01184446    -0.01000
C90         C  0.74264622  0.27761077  0.98506232    -0.23900
C91         C  0.72739018  0.30294302  0.96202158    -0.24100
C92         C  0.69277682  0.32748901  0.97524237    -0.01100
H93         H  0.76945046  0.25428170  0.98245269     0.12700
H94         H  0.73864569  0.30221836  0.93781348     0.12700
O95         O  0.49434940  0.50038855  0.69666366    -0.81000
O96         O  0.39210974  0.35939129  0.76620641    -0.65700
O97         O  0.48136552  0.42219369  0.72008541    -1.12300
C98         C  0.39191178  0.38897497  0.63145733     1.05900
O99         O  0.37204708  0.31576590  0.72900753    -0.78900
O100        O  0.45037610  0.32218944  0.68967312    -0.66500
Ni101      Ni  0.50386799  0.47222750  0.73575340     1.34900
C102        C  0.48547104  0.33969800  0.67634746     0.84600
O103        O  0.47578661  0.39284484  0.78079910    -0.79400
O104        O  0.51815646  0.44933156  0.77599496    -0.89700
C105        C  0.37235160  0.32716418  0.75742824     0.84200
O106        O  0.44330039  0.49173366  0.75114343    -0.67900
O107        O  0.39052699  0.35558715  0.64535892    -0.87200
C108        C  0.40622228  0.47415598  0.76193046     0.85000
C109        C  0.50578317  0.41843453  0.79121821     1.06600
H110        H  0.36944989  0.40578670  0.70836515     0.38400
O111        O  0.39922459  0.39080271  0.70583261    -1.09900
O112        O  0.48356874  0.37632531  0.66865152    -0.66500
Ni113      Ni  0.44456967  0.42140431  0.68238324     1.26300
O114        O  0.39981963  0.43670192  0.75939477    -0.66700
O115        O  0.40615467  0.42029603  0.64519060    -0.79000
C116        C  0.50141625  0.48807353  0.66881979     0.84400
O117        O  0.49003251  0.45314997  0.66059608    -0.66200
Ni118      Ni  0.38428815  0.33926224  0.68860775     1.27400
Ni119      Ni  0.43671126  0.39171730  0.74383128     1.26100
H120        H  0.51016919  0.40607251  0.71745047     0.39000
N121        N  0.17597860  0.15661457  0.93898333    -0.03600
C122        C  0.21402754  0.18144254  0.93365009    -0.01000
C123        C  0.22816735  0.19985646  0.96114968    -0.23900
C124        C  0.19820073  0.18617074  0.98417392    -0.24100
C125        C  0.16660255  0.15983813  0.97013634    -0.01100
H126        H  0.25699732  0.22131483  0.96409283     0.12700
H127        H  0.19987525  0.19391568  0.00872705     0.12700
N128        N  0.75143532  0.16327614  0.54663640    -0.03600
C129        C  0.72977723  0.19950829  0.55012941    -0.01000
C130        C  0.72284957  0.21698242  0.52120222    -0.23900
C131        C  0.74043967  0.19097764  0.49927622    -0.24100
C132        C  0.75766134  0.15839350  0.51532005    -0.01100
H133        H  0.70522713  0.24509176  0.51639720     0.12700
H134        H  0.74042603  0.19519833  0.47421388     0.12700
O135        O  0.00011727  0.97562077  0.25126781    -0.81000
O136        O  0.87090183  0.10395964  0.18614564    -0.65700
O137        O  0.97355419  0.05251578  0.22988232    -1.12300
C138        C  0.87205111  0.06889952  0.31815546     1.05900
O139        O  0.85623276  0.14949535  0.22249456    -0.78900
O140        O  0.91874725  0.14731117  0.27180281    -0.66500
Ni141      Ni  0.00304641  0.00563305  0.21271709     1.34900
C142        C  0.95936077  0.13401202  0.28134725     0.84600
O143        O  0.96035999  0.08303987  0.16990416    -0.79400
O144        O  0.01098476  0.03075883  0.17241426    -0.89700
C145        C  0.85142475  0.13625361  0.19475639     0.84200
O146        O  0.94528895  0.97991606  0.19893512    -0.67900
O147        O  0.85523577  0.09873396  0.30331433    -0.87200
C148        C  0.90511438  0.99355596  0.18914374     0.85000
C149        C  0.99362909  0.06114147  0.15839553     1.06600
H150        H  0.86156653  0.05449028  0.24265652     0.38400
O151        O  0.88740434  0.07354419  0.24532571    -1.09900
O152        O  0.96937618  0.09698565  0.28237392    -0.66500
Ni153      Ni  0.93876828  0.04834343  0.26828336     1.26300
O154        O  0.89355636  0.03008775  0.19122003    -0.66700
O155        O  0.90304034  0.04493576  0.30661364    -0.79000
C156        C  0.00429556  0.98655975  0.27970009     0.84400
O157        O  0.99010421  0.02061753  0.28873681    -0.66200
Ni158      Ni  0.85899089  0.12133416  0.26205802     1.27400
Ni159      Ni  0.92280837  0.07804291  0.20716032     1.26100
H160        H  0.99939846  0.07159168  0.23241450     0.39000
C161        C  0.79320245  0.07696918  0.38974413    -0.10900
C162        C  0.82622253  0.06883329  0.41401302     0.06200
C163        C  0.87292433  0.05506673  0.40613926    -0.09700
C164        C  0.88703657  0.05189195  0.37467167    -0.11400
C165        C  0.85500058  0.06331789  0.35066737    -0.01100
C166        C  0.80753108  0.07455660  0.35854085    -0.10200
C167        C  0.81352246  0.08078063  0.44658802     0.06200
H168        H  0.89909228  0.04842341  0.42431385     0.08100
H169        H  0.92390336  0.04315815  0.36922696     0.11600
H170        H  0.78202319  0.08329273  0.34051392     0.11900
H171        H  0.75718845  0.08809176  0.39485068     0.08200
C172        C  0.76609308  0.07538149  0.45781640    -0.11000
C173        C  0.74940020  0.09720750  0.48354499    -0.10200
C174        C  0.77993468  0.12439175  0.49876078    -0.01100
C175        C  0.82874161  0.12654298  0.48983492    -0.11300
C176        C  0.84553504  0.10472105  0.46404517    -0.09700
H177        H  0.74071508  0.05683753  0.44510281     0.08200
H178        H  0.71136866  0.09569627  0.48969172     0.11900
H179        H  0.85253981  0.14807226  0.50078031     0.11600
H180        H  0.88211778  0.10983475  0.45590306     0.08200
C181        C  0.02796872  0.12072566  0.08663309    -0.10900
C182        C  0.05345856  0.09256516  0.06855638     0.06200
C183        C  0.05756923  0.05351104  0.07998236    -0.09700
C184        C  0.03804249  0.04325080  0.10902785    -0.11400
C185        C  0.01328616  0.07161889  0.12721554    -0.01100
C186        C  0.00788969  0.11032023  0.11544914    -0.10200
C187        C  0.07845533  0.10473537  0.03915677     0.06200
H188        H  0.07616991  0.03082794  0.06656046     0.08100
H189        H  0.04228323  0.01303315  0.11723423     0.11600
H190        H  0.98923733  0.13295018  0.12892950     0.11900
H191        H  0.02483061  0.15127931  0.07906850     0.08200
C192        C  0.05888182  0.13462818  0.01984619    -0.11000
C193        C  0.08606489  0.15043092  0.99526191    -0.10200
C194        C  0.13268928  0.13585670  0.98883931    -0.01100
C195        C  0.15116703  0.10450340  0.00678813    -0.11300
C196        C  0.12441670  0.08907783  0.03165792    -0.09700
H197        H  0.02336708  0.14703255  0.02453279     0.08200
H198        H  0.07180934  0.17557545  0.98241208     0.11900
H199        H  0.18779088  0.09386185  0.00293518     0.11600
H200        H  0.14123109  0.06667659  0.04621388     0.08200
C201        C  0.56405718  0.25565200  0.64620843    -0.10900
C202        C  0.60941523  0.27424246  0.64263034     0.06200
C203        C  0.61456723  0.31356577  0.65366776    -0.09700
C204        C  0.57469291  0.33452536  0.66561650    -0.11400
C205        C  0.52905359  0.31633904  0.66767458    -0.01100
C206        C  0.52458104  0.27630743  0.65887548    -0.10200
C207        C  0.64877280  0.25441987  0.62412198     0.06200
H208        H  0.64905470  0.32868977  0.65220345     0.08100
H209        H  0.57929121  0.36524030  0.67267374     0.11600
H210        H  0.48974249  0.26161930  0.66003740     0.11900
H211        H  0.55800633  0.22580493  0.63760192     0.08200
C212        C  0.65318840  0.21263428  0.62283939    -0.11000
C213        C  0.68287170  0.19419679  0.60042638    -0.10200
C214        C  0.70934813  0.21717748  0.57918776    -0.01100
C215        C  0.70854692  0.25872984  0.58246309    -0.11300
C216        C  0.67855930  0.27711776  0.60444453    -0.09700
H217        H  0.63191273  0.19404623  0.63811972     0.08200
H218        H  0.68234718  0.16213508  0.59834108     0.11900
H219        H  0.72882209  0.27723721  0.56652350     0.11600
H220        H  0.67630214  0.30921421  0.60426224     0.08200
C221        C  0.34006428  0.28111247  0.83545804    -0.10900
C222        C  0.30504495  0.25265655  0.82697279     0.06200
C223        C  0.29223587  0.24892086  0.79527813    -0.09700
C224        C  0.31432588  0.27282633  0.77262707    -0.11400
C225        C  0.34907164  0.30148461  0.78124858    -0.01100
C226        C  0.36159521  0.30530560  0.81294919    -0.10200
C227        C  0.28172689  0.22784717  0.85149871     0.06200
H228        H  0.26554633  0.22722321  0.78797853     0.08100
H229        H  0.30380967  0.26917604  0.74838568     0.11600
H230        H  0.38834779  0.32689514  0.82038405     0.11900
H231        H  0.35026924  0.28521037  0.85970865     0.08200
C232        C  0.30967153  0.21291687  0.87634101    -0.11000
C233        C  0.28750436  0.19491813  0.90189973    -0.10200
C234        C  0.23686104  0.19108068  0.90324162    -0.01100
C235        C  0.20894465  0.20327150  0.87749192    -0.11300
C236        C  0.23122619  0.22148335  0.85176780    -0.09700
H237        H  0.34869131  0.21646314  0.87654118     0.08200
H238        H  0.30985509  0.18560746  0.92142134     0.11900
H239        H  0.16978508  0.20117863  0.87817536     0.11600
H240        H  0.20866855  0.23272693  0.83301462     0.08200
C241        C  0.58376078  0.43232622  0.86368825    -0.10900
C242        C  0.57374400  0.39763703  0.88063357     0.06200
C243        C  0.53888573  0.37104839  0.86883079    -0.09700
C244        C  0.51608672  0.37815435  0.84015040    -0.11400
C245        C  0.52766041  0.41201632  0.82254917    -0.01100
C246        C  0.56099251  0.43944760  0.83501226    -0.10200
C247        C  0.60296218  0.38700498  0.90867275     0.06200
H248        H  0.53076289  0.34378376  0.88107667     0.08100
H249        H  0.49029652  0.35655223  0.83142706     0.11600
H250        H  0.57029733  0.46612904  0.82233274     0.11900
H251        H  0.60995521  0.45363444  0.87234020     0.08200
C252        C  0.65347506  0.39251305  0.90850031    -0.11000
C253        C  0.68245974  0.37593842  0.93189290    -0.10200
C254        C  0.66160486  0.35381783  0.95609954    -0.01100
C255        C  0.61092347  0.35092063  0.95772931    -0.11300
C256        C  0.58182569  0.36733422  0.93417959    -0.09700
H257        H  0.67102542  0.40717386  0.88912167     0.08200
H258        H  0.72151319  0.37836089  0.93006764     0.11900
H259        H  0.59399843  0.33345175  0.97584953     0.11600
H260        H  0.54296192  0.36305666  0.93516240     0.08200
C261        C  0.74718180  0.20410858  0.06724201    -0.10900
C262        C  0.75305585  0.22368302  0.09617772     0.06200
C263        C  0.74172681  0.26464264  0.09761106    -0.09700
C264        C  0.72817481  0.28560978  0.07063021    -0.11400
C265        C  0.72399781  0.26587754  0.04179174    -0.01100
C266        C  0.73231706  0.22475265  0.04071563    -0.10200
C267        C  0.77410685  0.20184907  0.12369243     0.06200
H268        H  0.74440950  0.28096818  0.11934790     0.08100
H269        H  0.72302527  0.31743782  0.07219844     0.11600
H270        H  0.72924985  0.20861756  0.01884480     0.11900
H271        H  0.75625776  0.17307127  0.06429519     0.08200
C272        C  0.77096748  0.16007369  0.12562560    -0.11000
C273        C  0.79609411  0.13910553  0.14869459    -0.10200
C274        C  0.82335581  0.15922066  0.17143937    -0.01100
C275        C  0.82424200  0.20089238  0.17106261    -0.11300
C276        C  0.80058736  0.22194936  0.14720288    -0.09700
H277        H  0.74948247  0.14310656  0.10919359     0.08200
H278        H  0.79399532  0.10695731  0.14885804     0.11900
H279        H  0.84500709  0.21710507  0.18841332     0.11600
H280        H  0.80485884  0.25385435  0.14672529     0.08200
C281        C  0.35508050  0.35602598  0.55004344    -0.10900
C282        C  0.33834017  0.39160611  0.53662510     0.06200
C283        C  0.34300232  0.42710488  0.55386431    -0.09700
C284        C  0.36238295  0.42670018  0.58423661    -0.11400
C285        C  0.37665513  0.39068331  0.59815933    -0.01100
C286        C  0.37376152  0.35554329  0.58041139    -0.10200
C287        C  0.31070270  0.39014099  0.50666103     0.06200
H288        H  0.33051984  0.45499437  0.54414348     0.08100
H289        H  0.36432921  0.45430453  0.59726669     0.11600
H290        H  0.38482346  0.32734532  0.59029922     0.11900
H291        H  0.35133961  0.32805130  0.53769180     0.08200
C292        C  0.32483683  0.36413987  0.48246353    -0.11000
C293        C  0.29236221  0.35417781  0.45846183    -0.10200
C294        C  0.24529831  0.37010213  0.45823329    -0.01100
C295        C  0.23304827  0.39924353  0.48044469    -0.11300
C296        C  0.26554076  0.40940363  0.50432334    -0.09700
H297        H  0.35962928  0.34917567  0.48343170     0.08200
H298        H  0.30229830  0.33088024  0.44219209     0.11900
H299        H  0.19664745  0.41142317  0.48100653     0.11600
H300        H  0.25336064  0.42936746  0.52260874     0.08200
C301        C  0.01633770  0.22823047  0.31403086    -0.10900
C302        C  0.06450880  0.21616020  0.31959084     0.06200
C303        C  0.07855251  0.17771628  0.31002110    -0.09700
C304        C  0.04481966  0.15139182  0.29691898    -0.11400
C305        C  0.99625049  0.16296200  0.29260483    -0.01100
C306        C  0.98275216  0.20206231  0.30057051    -0.10200
C307        C  0.09823924  0.24186703  0.33815741     0.06200
H308        H  0.11550775  0.16758363  0.31327824     0.08100
H309        H  0.05664270  0.12171020  0.29062285     0.11600
H310        H  0.94563896  0.21199820  0.29760413     0.11900
H311        H  0.00382366  0.25728435  0.32143585     0.08200
C312        C  0.09647760  0.28371911  0.33624977    -0.11000
C313        C  0.12248766  0.30743228  0.35753485    -0.10200
C314        C  0.15082444  0.28968889  0.38091671    -0.01100
C315        C  0.15511460  0.24818595  0.38156146    -0.11300
C316        C  0.12930395  0.22455793  0.36045366    -0.09700
H317        H  0.07347670  0.29813643  0.31914555     0.08200
H318        H  0.11786732  0.33939311  0.35706382     0.11900
H319        H  0.17598412  0.23391449  0.39987029     0.11600
H320        H  0.13118274  0.19262742  0.36315272     0.08200
C321        C  0.29967565  0.36307695  0.35325235    -0.10900
C322        C  0.28003568  0.39730290  0.33897876     0.06200
C323        C  0.23373854  0.41034792  0.34852565    -0.09700
C324        C  0.20862677  0.39051539  0.37211766    -0.11400
C325        C  0.22872468  0.35691406  0.38640241    -0.01100
C326        C  0.27405583  0.34293723  0.37656614    -0.10200
C327        C  0.30851031  0.42026877  0.31540735     0.06200
H328        H  0.21674014  0.43594364  0.33782651     0.08100
H329        H  0.17349800  0.40147841  0.37948460     0.11600
H330        H  0.28985737  0.31683154  0.38726910     0.11900
H331        H  0.33542026  0.35235676  0.34706554     0.08200
C332        C  0.30448449  0.46193355  0.31390824    -0.11000
C333        C  0.33389777  0.48392414  0.29387477    -0.10200
C334        C  0.36890564  0.46507074  0.27505712    -0.01100
C335        C  0.37168731  0.42335046  0.27546954    -0.11300
C336        C  0.34162243  0.40122197  0.29521702    -0.09700
H337        H  0.28017083  0.47798661  0.32926066     0.08200
H338        H  0.33086900  0.51602079  0.29443254     0.11900
H339        H  0.39803647  0.40783049  0.26117746     0.11600
H340        H  0.34500179  0.36917774  0.29501058     0.08200
C341        C  0.55886813  0.44552368  0.09007426    -0.10900
C342        C  0.57645383  0.40728457  0.09699228     0.06200
C343        C  0.56918963  0.39232464  0.12731364    -0.09700
C344        C  0.54596562  0.41543293  0.15026707    -0.11400
C345        C  0.52933861  0.45403416  0.14343107    -0.01100
C346        C  0.53575550  0.46853048  0.11291098    -0.10200
C347        C  0.60362812  0.38394643  0.07290393     0.06200
H348        H  0.58263680  0.36315521  0.13357660     0.08100
H349        H  0.54168876  0.40327502  0.17348079     0.11600
H350        H  0.52326865  0.49798228  0.10662206     0.11900
H351        H  0.56292443  0.45778811  0.06687850     0.08200
C352        C  0.59822811  0.34244494  0.07016291    -0.11000
C353        C  0.62474134  0.32085890  0.04784772    -0.10200
C354        C  0.65728881  0.34030438  0.02796731    -0.01100
C355        C  0.66215969  0.38167076  0.03030039    -0.11300
C356        C  0.63583639  0.40322022  0.05252461    -0.09700
H357        H  0.57327411  0.32669878  0.08512113     0.08200
H358        H  0.62013306  0.28898662  0.04615128     0.11900
H359        H  0.68734565  0.39715666  0.01531610     0.11600
H360        H  0.64163076  0.43495784  0.05421372     0.08200
C361        C  0.64629249  0.58922164  0.57821043    -0.10900
C362        C  0.59549691  0.58721401  0.57718540     0.06200
C363        C  0.57034785  0.60801147  0.55381224    -0.09700
C364        C  0.59565210  0.63082200  0.53197865    -0.11400
C365        C  0.64658383  0.63255994  0.53276065    -0.10300
C366        C  0.67160657  0.61139995  0.55605106    -0.10200
C367        C  0.56903252  0.56327586  0.60048067     0.06200
H368        H  0.53112159  0.60702488  0.55277089     0.08100
H369        H  0.57543727  0.64737694  0.51463850     0.11600
H370        H  0.71083330  0.61174443  0.55688058     0.11900
H371        H  0.66636779  0.57308713  0.59590292     0.08200
C372        C  0.54004866  0.53123807  0.59092322    -0.11000
C373        C  0.51751600  0.50709524  0.61311603    -0.10200
C374        C  0.52273425  0.51508798  0.64527405    -0.01100
C375        C  0.55051986  0.54800456  0.65468683    -0.11300
C376        C  0.57391116  0.57158231  0.63249849    -0.09700
H377        H  0.53596520  0.52428818  0.56631816     0.08200
H378        H  0.49623625  0.48201448  0.60511720     0.11900
H379        H  0.55536580  0.55482698  0.67924763     0.11600
H380        H  0.59602051  0.59627429  0.64029827     0.08200
C381        C  0.56868300  0.63749871  0.41811778    -0.10900
C382        C  0.57350303  0.59635157  0.41312107     0.06200
C383        C  0.60290140  0.57423194  0.43368473    -0.09700
C384        C  0.62934812  0.59334172  0.45743765    -0.11400
C385        C  0.62723935  0.63481618  0.46060403    -0.01100
C386        C  0.59565350  0.65653990  0.44139322    -0.10200
C387        C  0.55204241  0.57808931  0.38451505     0.06200
H388        H  0.60696675  0.54245724  0.43053258     0.08100
H389        H  0.65404342  0.57617395  0.47179634     0.11600
H390        H  0.59404073  0.68863994  0.44323517     0.11900
H391        H  0.54672143  0.65545226  0.40257102     0.08200
C392        C  0.50515633  0.58878052  0.37474908    -0.11000
C393        C  0.48799078  0.57743947  0.34529236    -0.10200
C394        C  0.51716550  0.55498167  0.32481633    -0.01100
C395        C  0.56295830  0.54216664  0.33525204    -0.11300
C396        C  0.58029640  0.55373356  0.36480773    -0.09700
H397        H  0.48230634  0.60705843  0.38954620     0.08200
H398        H  0.45211672  0.58712157  0.33820542     0.11900
H399        H  0.58622622  0.52485226  0.32003204     0.11600
H400        H  0.61680180  0.54539825  0.37155437     0.08200
C401        C  0.29643683  0.58606335  0.86861532    -0.10900
C402        C  0.27704972  0.56243201  0.84436761     0.06200
C403        C  0.22642048  0.55875065  0.84215149    -0.09700
C404        C  0.19604336  0.57716306  0.86395193    -0.11400
C405        C  0.21524556  0.59996072  0.88860424    -0.01100
C406        C  0.26584661  0.60460865  0.89051190    -0.10200
C407        C  0.30906952  0.54069793  0.82189483     0.06200
H408        H  0.21016548  0.54137607  0.82355157     0.08100
H409        H  0.15730085  0.57271434  0.86200053     0.11600
H410        H  0.28177503  0.62248298  0.90889960     0.11900
H411        H  0.33529125  0.58944689  0.87110165     0.08200
C412        C  0.35088082  0.55853913  0.80962334    -0.11000
C413        C  0.38103624  0.53762730  0.78891678    -0.10200
C414        C  0.37047828  0.49813682  0.78016520    -0.01100
C415        C  0.32821069  0.48058711  0.79206440    -0.11300
C416        C  0.29793309  0.50158613  0.81257604    -0.09700
H417        H  0.36029285  0.58871627  0.81601939     0.08200
H418        H  0.41346580  0.55209382  0.78049653     0.11900
H419        H  0.31909625  0.45018204  0.78617652     0.11600
H420        H  0.26637790  0.48670601  0.82186136     0.08200
C421        C  0.28165809  0.55988662  0.99192360    -0.10900
C422        C  0.30004521  0.59141270  0.01027710     0.06200
C423        C  0.28591012  0.63046538  0.00265109    -0.09700
C424        C  0.25264409  0.63758418  0.97870631    -0.11400
C425        C  0.23238481  0.60601077  0.96178110    -0.01100
C426        C  0.24780263  0.56713328  0.96801328    -0.10200
C427        C  0.33000559  0.58398842  0.03893645     0.06200
H428        H  0.29796712  0.65560465  0.01642170     0.08100
H429        H  0.24021303  0.66773010  0.97471049     0.11600
H430        H  0.23170873  0.54232725  0.95560931     0.11900
H431        H  0.29210506  0.52948690  0.99668482     0.08200
C432        C  0.32211514  0.55020908  0.05766401    -0.11000
C433        C  0.34491165  0.54637058  0.08685772    -0.10200
C434        C  0.37518011  0.57659564  0.09821286    -0.01100
C435        C  0.38508058  0.60926977  0.07900582    -0.11300
C436        C  0.36343818  0.61262119  0.04956543    -0.09700
H437        H  0.29626455  0.52772460  0.05068225     0.08200
H438        H  0.33635261  0.52109741  0.10140995     0.11900
H439        H  0.40868539  0.63283436  0.08716834     0.11600
H440        H  0.37184932  0.63841401  0.03558876     0.08200
C441        C  0.82197852  0.79300331  0.61297462    -0.10900
C442        C  0.79056134  0.76185830  0.62103026     0.06200
C443        C  0.77865268  0.75626800  0.65253578    -0.09700
C444        C  0.79894448  0.78061113  0.67567638    -0.11400
C445        C  0.83082229  0.81155317  0.66771781    -0.01100
C446        C  0.84155335  0.81786518  0.63605384    -0.10200
C447        C  0.77049692  0.73535283  0.59647340     0.06200
H448        H  0.75451579  0.73248521  0.65928440     0.08100
H449        H  0.78983084  0.77508879  0.69986998     0.11600
H450        H  0.86603878  0.84135224  0.62919137     0.11900
H451        H  0.83125896  0.79814236  0.58874946     0.08200
C452        C  0.72025073  0.72908672  0.59389440    -0.11000
C453        C  0.70114304  0.70784390  0.56845478    -0.10200
C454        C  0.73208522  0.69223601  0.54544064    -0.01100
C455        C  0.78245907  0.69641313  0.54917975    -0.11300
C456        C  0.80147693  0.71781938  0.57439204    -0.09700
H457        H  0.69566955  0.74245049  0.61062589     0.08200
H458        H  0.66217787  0.70580734  0.56576121     0.11900
H459        H  0.80704423  0.68465046  0.53172037     0.11600
H460        H  0.84036938  0.72171443  0.57617151     0.08200
C461        C  0.00471501  0.72264780  0.79987363    -0.10900
C462        C  0.04805749  0.73088335  0.81596291     0.06200
C463        C  0.06411431  0.77054477  0.81745338    -0.09700
C464        C  0.03611816  0.80136361  0.80470742    -0.11400
C465        C  0.99136618  0.79323360  0.79024458    -0.01100
C466        C  0.97672550  0.75335073  0.78727794    -0.10200
C467        C  0.07321592  0.69909511  0.83409580     0.06200
H468        H  0.09704804  0.77809648  0.82992436     0.08100
H469        H  0.04864016  0.83167106  0.80728305     0.11600
H470        H  0.94276194  0.74579118  0.77599974     0.11900
H471        H  0.99166457  0.69244449  0.79772181     0.08200
C472        C  0.04571892  0.67106431  0.85063663    -0.11000
C473        C  0.06783259  0.64565920  0.87208585    -0.10200
C474        C  0.11791507  0.64771369  0.87774003    -0.01100
C475        C  0.14618934  0.67322140  0.85942801    -0.11300
C476        C  0.12400494  0.69874066  0.83777874    -0.09700
H477        H  0.00656965  0.67060046  0.84877981     0.08200
H478        H  0.04521010  0.62632903  0.88598569     0.11900
H479        H  0.18480531  0.67575403  0.86359146     0.11600
H480        H  0.14633581  0.71947817  0.82502080     0.08200
C481        C  0.88569892  0.06949746  0.64890749    -0.10900
C482        C  0.83820231  0.06100186  0.63893545     0.06200
C483        C  0.81598625  0.02610061  0.64972872    -0.09700
C484        C  0.84132538  0.99958726  0.66898488    -0.11400
C485        C  0.88954154  0.00733244  0.67793370    -0.01100
C486        C  0.91097886  0.04308484  0.66820896    -0.10200
C487        C  0.81296551  0.08758056  0.61628565     0.06200
H488        H  0.77916590  0.01899386  0.64291759     0.08100
H489        H  0.82358601  0.97242226  0.67607267     0.11600
H490        H  0.94813884  0.04994696  0.67438384     0.11900
H491        H  0.90415083  0.09583568  0.64075965     0.08200
C492        C  0.81779442  0.12910948  0.61841069    -0.11000
C493        C  0.79658968  0.15388755  0.59598917    -0.10200
C494        C  0.77007486  0.13776811  0.57093533    -0.01100
C495        C  0.76414883  0.09640339  0.56917618    -0.11300
C496        C  0.78540951  0.07156229  0.59155267    -0.09700
H497        H  0.83826065  0.14246678  0.63733130     0.08200
H498        H  0.80192804  0.18567296  0.59773836     0.11900
H499        H  0.74330541  0.08328246  0.55035910     0.11600
H500        H  0.78134128  0.03972419  0.58899703     0.08200
C501        C  0.04948701  0.02140812  0.86192796    -0.10900
C502        C  0.08658397  0.04721134  0.85226653     0.06200
C503        C  0.10102987  0.04637979  0.82080965    -0.09700
C504        C  0.07814967  0.02109542  0.79935820    -0.11400
C505        C  0.04097873  0.99543265  0.80895713    -0.01100
C506        C  0.02729724  0.99542041  0.84055941    -0.10200
C507        C  0.10970677  0.07534842  0.87471798     0.06200
H508        H  0.12926323  0.06603661  0.81262715     0.08100
H509        H  0.08954584  0.02159460  0.77516052     0.11600
H510        H  0.99860066  0.97607888  0.84855313     0.11900
H511        H  0.03784725  0.02120694  0.88607370     0.08200
C512        C  0.08125268  0.09805117  0.89537107    -0.11000
C513        C  0.10291176  0.12502785  0.91609852    -0.10200
C514        C  0.15352953  0.12950335  0.91702738    -0.01100
C515        C  0.18200414  0.10678134  0.89640424    -0.11300
C516        C  0.16033904  0.08021696  0.87533702    -0.09700
H517        H  0.04211717  0.09549325  0.89504715     0.08200
H518        H  0.07998748  0.14287903  0.93103751     0.11900
H519        H  0.22112136  0.10922914  0.89687929     0.11600
H520        H  0.18324596  0.06294640  0.85985975     0.08200
C521        C  0.85168684  0.89876285  0.15597065    -0.10900
C522        C  0.81807584  0.91350535  0.13402946     0.06200
C523        C  0.80979660  0.95481942  0.13304110    -0.09700
C524        C  0.83591734  0.98066659  0.15240775    -0.11400
C525        C  0.87158427  0.96595307  0.17287691    -0.01100
C526        C  0.87840071  0.92465564  0.17491447    -0.10200
C527        C  0.79379532  0.88623104  0.11125248     0.06200
H528        H  0.78479279  0.96756807  0.11629991     0.08100
H529        H  0.82997231  0.01235574  0.15010055     0.11600
H530        H  0.90529399  0.91233370  0.19065426     0.11900
H531        H  0.85810776  0.86716382  0.15821520     0.08200
C532        C  0.81795876  0.85204003  0.10003183    -0.11000
C533        C  0.79607560  0.82725795  0.07785040    -0.10200
C534        C  0.75011020  0.83647934  0.06604363    -0.01100
C535        C  0.72591949  0.87049265  0.07671936    -0.11300
C536        C  0.74715623  0.89483234  0.09947083    -0.09700
H537        H  0.85434222  0.84484803  0.10770847     0.08200
H538        H  0.81536789  0.80137049  0.06926926     0.11900
H539        H  0.69045674  0.87795206  0.06748669     0.11600
H540        H  0.72693185  0.92035410  0.10775887     0.08200
C541        C  0.86820851  0.90976952  0.90706018    -0.10900
C542        C  0.82068365  0.89677988  0.91303753     0.06200
C543        C  0.79109476  0.88546679  0.88778532    -0.09700
C544        C  0.80878295  0.88581173  0.85744543    -0.11400
C545        C  0.85651107  0.89768865  0.85137161    -0.01100
C546        C  0.88587666  0.91064993  0.87631061    -0.10200
C547        C  0.80268154  0.88986732  0.94517018     0.06200
H548        H  0.75478693  0.87433532  0.89159477     0.08100
H549        H  0.78530513  0.87572047  0.83870249     0.11600
H550        H  0.92297450  0.91967342  0.87219750     0.11900
H551        H  0.89185731  0.91832000  0.92616350     0.08200
C552        C  0.83048668  0.86735740  0.96630544    -0.11000
C553        C  0.80797946  0.84820545  0.99135542    -0.10200
C554        C  0.75767479  0.85145673  0.99536142    -0.01100
C555        C  0.73124206  0.87801668  0.97680177    -0.11300
C556        C  0.75371654  0.89751638  0.95210155    -0.09700
H557        H  0.86822933  0.86087144  0.96150304     0.08200
H558        H  0.82872849  0.82733413  0.00525893     0.11900
H559        H  0.69229300  0.88056565  0.97945039     0.11600
H560        H  0.73166542  0.91528551  0.93646486     0.08200
C561        C  0.60650556  0.65831472  0.15017032    -0.10900
C562        C  0.59826961  0.69759395  0.14011989     0.06200
C563        C  0.55233701  0.71469093  0.14555367    -0.09700
C564        C  0.51521110  0.69259891  0.15926718    -0.11400
C565        C  0.52273893  0.65264808  0.16730021    -0.01100
C566        C  0.56898856  0.63594336  0.16316561    -0.10200
C567        C  0.63496689  0.71887426  0.12079322     0.06200
H568        H  0.54398379  0.74444953  0.13766342     0.08100
H569        H  0.47973393  0.70609523  0.16186680     0.11600
H570        H  0.57585911  0.60526712  0.16940518     0.11900
H571        H  0.64157828  0.64433058  0.14715564     0.08200
C572        C  0.63739321  0.76073103  0.12050147    -0.11000
C573        C  0.66407496  0.78050735  0.09751696    -0.10200
C574        C  0.68932710  0.75878475  0.07471439    -0.01100
C575        C  0.69078636  0.71722948  0.07683541    -0.11300
C576        C  0.66386270  0.69747888  0.09947638    -0.09700
H577        H  0.61662705  0.77829125  0.13697449     0.08200
H578        H  0.66156571  0.81251688  0.09615145     0.11900
H579        H  0.71000738  0.69983421  0.05944986     0.11600
H580        H  0.66291396  0.66536532  0.09852185     0.08200
C581        C  0.03952663  0.93874273  0.35687864    -0.10900
C582        C  0.06364053  0.90402979  0.34697170     0.06200
C583        C  0.06736879  0.89640726  0.31474571    -0.09700
C584        C  0.04804633  0.92311589  0.29296043    -0.11400
C585        C  0.02455248  0.95813801  0.30286830    -0.01100
C586        C  0.02026390  0.96548337  0.33510968    -0.10200
C587        C  0.08606386  0.87656021  0.37015215     0.06200
H588        H  0.08618540  0.87018792  0.30634728     0.08100
H589        H  0.05205691  0.91654179  0.26830801     0.11600
H590        H  0.00183985  0.99186881  0.34356025     0.11900
H591        H  0.03538582  0.94516085  0.38154436     0.08200
C592        C  0.11174127  0.89180706  0.39594697    -0.11000
C593        C  0.13372847  0.86627570  0.41748723    -0.10200
C594        C  0.13030482  0.82489734  0.41395712    -0.01100
C595        C  0.10461894  0.80950389  0.38824491    -0.11300
C596        C  0.08283279  0.83505759  0.36650223    -0.09700
H597        H  0.11570497  0.92357143  0.39912864     0.08200
H598        H  0.15421666  0.87888397  0.43665586     0.11900
H599        H  0.10097138  0.77770427  0.38521399     0.11600
H600        H  0.06291127  0.82237063  0.34705662     0.08200
C601        C  0.05082985  0.83162608  0.52280650    -0.10900
C602        C  0.07279535  0.86362055  0.53872413     0.06200
C603        C  0.11561819  0.87983341  0.52626801    -0.09700
C604        C  0.13840314  0.86193810  0.50065929    -0.11400
C605        C  0.11793061  0.82846222  0.48631978    -0.01100
C606        C  0.07309983  0.81442323  0.49676439    -0.10200
C607        C  0.05384999  0.87719675  0.56964070     0.06200
H608        H  0.13298405  0.90510070  0.53723999     0.08100
H609        H  0.17367654  0.87252561  0.49344463     0.11600
H610        H  0.05754225  0.78784516  0.48652668     0.11900
H611        H  0.01836718  0.81777238  0.53171573     0.08200
C612        C  0.00412318  0.87468940  0.57668673    -0.11000
C613        C  0.98721955  0.88386072  0.60661139    -0.10200
C614        C  0.01942619  0.89659248  0.63005457    -0.01100
C615        C  0.06878855  0.90037561  0.62292540    -0.11300
C616        C  0.08590044  0.89032919  0.59321858    -0.09700
H617        H  0.97808466  0.86553035  0.55914299     0.08200
H618        H  0.94879662  0.88124765  0.61135257     0.11900
H619        H  0.09444029  0.90994613  0.64061310     0.11600
H620        H  0.12455967  0.89172063  0.58917109     0.08200
C621        C  0.27848305  0.70853084  0.29542737    -0.10900
C622        C  0.27674903  0.69469571  0.32630548     0.06200
C623        C  0.30498393  0.66149157  0.33458249    -0.09700
C624        C  0.33382752  0.64217375  0.31241629    -0.11400
C625        C  0.33508151  0.65549871  0.28132200    -0.01100
C626        C  0.30718846  0.68903546  0.27311932    -0.10200
C627        C  0.24559609  0.71433796  0.35007085     0.06200
H628        H  0.30492729  0.65054761  0.35835406     0.08100
H629        H  0.35490457  0.61658310  0.31965213     0.11600
H630        H  0.30708363  0.69998746  0.24936292     0.11900
H631        H  0.25689040  0.73392996  0.28842179     0.08200
C632        C  0.24589429  0.75587602  0.35418609    -0.11000
C633        C  0.22109383  0.77343993  0.37932873    -0.10200
C634        C  0.19553650  0.74965438  0.40048302    -0.01100
C635        C  0.19284878  0.70854332  0.39514944    -0.11300
C636        C  0.21752581  0.69107919  0.37023233    -0.09700
H637        H  0.26743036  0.77445200  0.33901892     0.08200
H638        H  0.22438403  0.80511165  0.38335003     0.11900
H639        H  0.17333194  0.68963864  0.41120170     0.11600
H640        H  0.21592265  0.65912559  0.36728239     0.08200
loop_ 
_geom_bond_atom_site_label_1 
_geom_bond_atom_site_label_2 
_geom_bond_distance 
_geom_bond_site_symmetry_2 
_ccdc_geom_bond_type 
N1            C5   1.359       .  A
N1            C2   1.361       .  A
N1          C594   1.444       .  S
C2            C3   1.383       .  A
C2          C634   1.479       .  S
C3            C4   1.369       .  A
C3            H6   1.082       .  S
C4            C5   1.379       .  A
C4            H7   1.082       .  S
C5          C605   1.470       .  S
N8           C12   1.352       .  A
N8            C9   1.356       .  A
N8          C534   1.432       .  S
C9           C10   1.385       .  A
C9          C574   1.479       .  S
C10          C11   1.372   1_554  A
C10          H13   1.082       .  S
C11          C12   1.380   1_556  A
C11          H14   1.082       .  S
C12         C554   1.469   1_554  S
O15         Ni21   1.929       .  S
O15          C36   1.271       .  A
O16         Ni39   1.914       .  S
O16          C25   1.271   1_655  A
O17         Ni21   1.911       .  S
O17         Ni39   1.919       .  S
O17         Ni33   1.909       .  S
O17          H40   0.966       .  S
C18         C614   1.477       .  S
C18          O35   1.273   1_455  A
C18          O27   1.277       .  A
O19         Ni38   1.934       .  S
O19          C25   1.274       .  A
O20         Ni38   1.915   1_655  S
O20          C22   1.272       .  A
Ni21         O24   1.916       .  S
Ni21         O26   1.903       .  S
C22         C485   1.488   1_565  S
C22          O32   1.273       .  A
O23         Ni39   1.915       .  S
O23          C29   1.273       .  A
O24          C29   1.274       .  A
C25         C505   1.483       .  S
O26          C28   1.270       .  A
O27         Ni38   1.927       .  S
C28         C465   1.488       .  S
C28          O34   1.277       .  A
C29         C545   1.475       .  S
H30          O31   0.966   1_455  S
O31         Ni39   1.910       .  S
O31         Ni33   1.905       .  S
O31         Ni38   1.909   1_655  S
O32         Ni33   1.926       .  S
Ni33         O37   1.908       .  S
Ni33         O35   1.909       .  S
O34         Ni39   1.942       .  S
C36         C445   1.483       .  S
C36          O37   1.268       .  A
N41          C45   1.362       .  A
N41          C42   1.363       .  A
N41         C405   1.449       .  S
C42          C43   1.383       .  A
C42         C474   1.483       .  S
C43          C44   1.367       .  A
C43          H46   1.082       .  S
C44          C45   1.380       .  A
C44          H47   1.082       .  S
C45         C425   1.474       .  S
N48          C52   1.360       .  A
N48          C49   1.363       .  A
N48         C365   1.445       .  S
C49          C50   1.383       .  A
C49         C454   1.483       .  S
C50          C51   1.371       .  A
C50          H53   1.082       .  S
C51          C52   1.380       .  A
C51          H54   1.082       .  S
C52         C385   1.478       .  S
O55         Ni61   1.936       .  S
O55          C76   1.273       .  A
O56         Ni79   1.900       .  S
O56          C65   1.268       .  A
O57         Ni61   1.925       .  S
O57         Ni79   1.908       .  S
O57         Ni73   1.916       .  S
O57          H80   0.967       .  S
C58         C394   1.486       .  S
C58          O75   1.270       .  A
C58          O67   1.280       .  A
O59         Ni78   1.954       .  S
O59          C65   1.279       .  A
O60         Ni78   1.920       .  S
O60          C62   1.273       .  A
Ni61         O64   1.934       .  S
Ni61         O66   1.908       .  S
C62         C334   1.488       .  S
C62          O72   1.273       .  A
O63         Ni79   1.919       .  S
O63          C69   1.271       .  A
O64          C69   1.272       .  A
C65         C345   1.493       .  S
O66          C68   1.272       .  A
O67         Ni78   1.949       .  S
C68         C565   1.480       .  S
C68          O74   1.278       .  A
C69         C434   1.478       .  S
H70          O71   0.966       .  S
O71         Ni79   1.911       .  S
O71         Ni73   1.905       .  S
O71         Ni78   1.925       .  S
O72         Ni73   1.922       .  S
Ni73         O77   1.899       .  S
Ni73         O75   1.900       .  S
O74         Ni79   1.946       .  S
C76         C625   1.487       .  S
C76          O77   1.267       .  A
N81          C85   1.358       .  A
N81          C82   1.358       .  A
N81         C325   1.436       .  S
C82          C83   1.381       .  A
C82         C314   1.477       .  S
C83          C84   1.372       .  A
C83          H86   1.082       .  S
C84          C85   1.382       .  A
C84          H87   1.082       .  S
C85         C294   1.479       .  S
N88          C92   1.360   1_554  A
N88          C89   1.362       .  A
N88         C354   1.442       .  S
C89          C90   1.385   1_554  A
C89         C265   1.487       .  S
C90          C91   1.370       .  A
C90          H93   1.082       .  S
C91          C92   1.381       .  A
C91          H94   1.082       .  S
C92         C254   1.480       .  S
O95        Ni101   1.943       .  S
O95         C116   1.275       .  A
O96        Ni119   1.907       .  S
O96         C105   1.270       .  A
O97        Ni101   1.914       .  S
O97        Ni119   1.904       .  S
O97        Ni113   1.904       .  S
O97         H120   0.967       .  S
C98         C285   1.486       .  S
C98         O115   1.268       .  A
C98         O107   1.274       .  A
O99        Ni118   1.935       .  S
O99         C105   1.274       .  A
O100       Ni118   1.910       .  S
O100        C102   1.272       .  A
Ni101       O104   1.928       .  S
Ni101       O106   1.911       .  S
C102        C205   1.481       .  S
C102        O112   1.278       .  A
O103       Ni119   1.912       .  S
O103        C109   1.274       .  A
O104        C109   1.277       .  A
C105        C225   1.487       .  S
O106        C108   1.272       .  A
O107       Ni118   1.941       .  S
C108        C414   1.492       .  S
C108        O114   1.277       .  A
C109        C245   1.485       .  S
H110        O111   0.968       .  S
O111       Ni119   1.924       .  S
O111       Ni113   1.912       .  S
O111       Ni118   1.927       .  S
O112       Ni113   1.947       .  S
Ni113       O117   1.899       .  S
Ni113       O115   1.910       .  S
O114       Ni119   1.938       .  S
C116        C374   1.484       .  S
C116        O117   1.266       .  A
N121        C125   1.363       .  A
N121        C122   1.364       .  A
N121        C514   1.446       .  S
C122        C123   1.383       .  A
C122        C234   1.485       .  S
C123        C124   1.370       .  A
C123        H126   1.082       .  S
C124        C125   1.379       .  A
C124        H127   1.082   1_556  S
C125        C194   1.477       .  S
N128        C132   1.361       .  A
N128        C129   1.364       .  A
N128        C494   1.443       .  S
C129        C130   1.385       .  A
C129        C214   1.488       .  S
C130        C131   1.369       .  A
C130        H133   1.082       .  S
C131        C132   1.378       .  A
C131        H134   1.082       .  S
C132        C174   1.477       .  S
O135       Ni141   1.940   1_565  S
O135        C156   1.275       .  A
O136       Ni159   1.900       .  S
O136        C145   1.265       .  A
O137       Ni141   1.917   1_655  S
O137       Ni159   1.906       .  S
O137       Ni153   1.911       .  S
O137        H160   0.966       .  S
C138        C165   1.483       .  S
C138        O155   1.273       .  A
C138        O147   1.275       .  A
O139       Ni158   1.945       .  S
O139        C145   1.273       .  A
O140       Ni158   1.912       .  S
O140        C142   1.272       .  A
Ni141       O144   1.937       .  S
Ni141       O146   1.906   1_445  S
C142        C305   1.488       .  S
C142        O152   1.276       .  A
O143       Ni159   1.912       .  S
O143        C149   1.274       .  A
O144        C149   1.278   1_455  A
C145        C274   1.480       .  S
O146        C148   1.269       .  A
O147       Ni158   1.928       .  S
C148        C525   1.483       .  S
C148        O154   1.272   1_565  A
C149        C185   1.486   1_655  S
H150        O151   0.966       .  S
O151       Ni159   1.912       .  S
O151       Ni153   1.919       .  S
O151       Ni158   1.923       .  S
O152       Ni153   1.937       .  S
Ni153       O157   1.906       .  S
Ni153       O155   1.920       .  S
O154       Ni159   1.928       .  S
C156        C585   1.487       .  S
C156        O157   1.269   1_465  A
C161        C162   1.406       .  A
C161        C166   1.396       .  A
C161        H171   1.083       .  S
C162        C163   1.409       .  A
C162        C167   1.492       .  S
C163        C164   1.406       .  A
C163        H168   1.083       .  S
C164        C165   1.407       .  A
C164        H169   1.083       .  S
C165        C166   1.403       .  A
C166        H170   1.083       .  S
C167        C172   1.407       .  A
C167        C176   1.408       .  A
C172        C173   1.399       .  A
C172        H177   1.083       .  S
C173        C174   1.402       .  A
C173        H178   1.083       .  S
C174        C175   1.402       .  A
C175        C176   1.402       .  A
C175        H179   1.083       .  S
C176        H180   1.083       .  S
C181        C182   1.408       .  A
C181        C186   1.399       .  A
C181        H191   1.082       .  S
C182        C183   1.408       .  A
C182        C187   1.496       .  S
C183        C184   1.401       .  A
C183        H188   1.082       .  S
C184        C185   1.406       .  A
C184        H189   1.083       .  S
C185        C186   1.405       .  A
C186        H190   1.083   1_455  S
C187        C192   1.409       .  A
C187        C196   1.409       .  A
C192        C193   1.401   1_554  A
C192        H197   1.082       .  S
C193        C194   1.402       .  A
C193        H198   1.083       .  S
C194        C195   1.401   1_556  A
C195        C196   1.399       .  A
C195        H199   1.083       .  S
C196        H200   1.082       .  S
C201        C202   1.409       .  A
C201        C206   1.399       .  A
C201        H211   1.082       .  S
C202        C203   1.411       .  A
C202        C207   1.499       .  S
C203        C204   1.401       .  A
C203        H208   1.082       .  S
C204        C205   1.404       .  A
C204        H209   1.083       .  S
C205        C206   1.403       .  A
C206        H210   1.083       .  S
C207        C212   1.412       .  A
C207        C216   1.407       .  A
C212        C213   1.404       .  A
C212        H217   1.082       .  S
C213        C214   1.404       .  A
C213        H218   1.082       .  S
C214        C215   1.405       .  A
C215        C216   1.396       .  A
C215        H219   1.083       .  S
C216        H220   1.082       .  S
C221        C222   1.408       .  A
C221        C226   1.398       .  A
C221        H231   1.083       .  S
C222        C223   1.406       .  A
C222        C227   1.492       .  S
C223        C224   1.404       .  A
C223        H228   1.083       .  S
C224        C225   1.409       .  A
C224        H229   1.083       .  S
C225        C226   1.404       .  A
C226        H230   1.083       .  S
C227        C232   1.405       .  A
C227        C236   1.410       .  A
C232        C233   1.396       .  A
C232        H237   1.083       .  S
C233        C234   1.404       .  A
C233        H238   1.083       .  S
C234        C235   1.404       .  A
C235        C236   1.406       .  A
C235        H239   1.083       .  S
C236        H240   1.083       .  S
C241        C242   1.405       .  A
C241        C246   1.398       .  A
C241        H251   1.083       .  S
C242        C243   1.407       .  A
C242        C247   1.488       .  S
C243        C244   1.398       .  A
C243        H248   1.083       .  S
C244        C245   1.406       .  A
C244        H249   1.083       .  S
C245        C246   1.407       .  A
C246        H250   1.083       .  S
C247        C252   1.406       .  A
C247        C256   1.408       .  A
C252        C253   1.396       .  A
C252        H257   1.083       .  S
C253        C254   1.404       .  A
C253        H258   1.083       .  S
C254        C255   1.403       .  A
C255        C256   1.400       .  A
C255        H259   1.083       .  S
C256        H260   1.083       .  S
C261        C262   1.409       .  A
C261        C266   1.393       .  A
C261        H271   1.080       .  S
C262        C263   1.413       .  A
C262        C267   1.504       .  S
C263        C264   1.405       .  A
C263        H268   1.081       .  S
C264        C265   1.404       .  A
C264        H269   1.082       .  S
C265        C266   1.403       .  A
C266        H270   1.083       .  S
C267        C272   1.411       .  A
C267        C276   1.413       .  A
C272        C273   1.397       .  A
C272        H277   1.081       .  S
C273        C274   1.402       .  A
C273        H278   1.084       .  S
C274        C275   1.403       .  A
C275        C276   1.403       .  A
C275        H279   1.083       .  S
C276        H280   1.081       .  S
C281        C282   1.406       .  A
C281        C286   1.397       .  A
C281        H291   1.083       .  S
C282        C283   1.408       .  A
C282        C287   1.490       .  S
C283        C284   1.404       .  A
C283        H288   1.083       .  S
C284        C285   1.407       .  A
C284        H289   1.083       .  S
C285        C286   1.405       .  A
C286        H290   1.083       .  S
C287        C292   1.408       .  A
C287        C296   1.406       .  A
C292        C293   1.401       .  A
C292        H297   1.083       .  S
C293        C294   1.403       .  A
C293        H298   1.082       .  S
C294        C295   1.404       .  A
C295        C296   1.399       .  A
C295        H299   1.083       .  S
C296        H300   1.083       .  S
C301        C302   1.408       .  A
C301        C306   1.401   1_455  A
C301        H311   1.082       .  S
C302        C303   1.409       .  A
C302        C307   1.497       .  S
C303        C304   1.401       .  A
C303        H308   1.082       .  S
C304        C305   1.406   1_455  A
C304        H309   1.083       .  S
C305        C306   1.407       .  A
C306        H310   1.083       .  S
C307        C312   1.412       .  A
C307        C316   1.407       .  A
C312        C313   1.405       .  A
C312        H317   1.082       .  S
C313        C314   1.402       .  A
C313        H318   1.083       .  S
C314        C315   1.402       .  A
C315        C316   1.396       .  A
C315        H319   1.084       .  S
C316        H320   1.082       .  S
C321        C322   1.412       .  A
C321        C326   1.402       .  A
C321        H331   1.082       .  S
C322        C323   1.410       .  A
C322        C327   1.499       .  S
C323        C324   1.399       .  A
C323        H328   1.082       .  S
C324        C325   1.400       .  A
C324        H329   1.083       .  S
C325        C326   1.400       .  A
C326        H330   1.082       .  S
C327        C332   1.408       .  A
C327        C336   1.410       .  A
C332        C333   1.398       .  A
C332        H337   1.082       .  S
C333        C334   1.407       .  A
C333        H338   1.083       .  S
C334        C335   1.406       .  A
C335        C336   1.403       .  A
C335        H339   1.083       .  S
C336        H340   1.082       .  S
C341        C342   1.406       .  A
C341        C346   1.398       .  A
C341        H351   1.083       .  S
C342        C343   1.409       .  A
C342        C347   1.495       .  S
C343        C344   1.405       .  A
C343        H348   1.083       .  S
C344        C345   1.408       .  A
C344        H349   1.083       .  S
C345        C346   1.408       .  A
C346        H350   1.083       .  S
C347        C352   1.409       .  A
C347        C356   1.408       .  A
C352        C353   1.403       .  A
C352        H357   1.082       .  S
C353        C354   1.404       .  A
C353        H358   1.083       .  S
C354        C355   1.402       .  A
C355        C356   1.397       .  A
C355        H359   1.083       .  S
C356        H360   1.082       .  S
C361        C362   1.403       .  A
C361        C366   1.399       .  A
C361        H371   1.083       .  S
C362        C363   1.403       .  A
C362        C367   1.480       .  S
C363        C364   1.401       .  A
C363        H368   1.083       .  S
C364        C365   1.406       .  A
C364        H369   1.082       .  S
C365        C366   1.405       .  A
C366        H370   1.082       .  S
C367        C372   1.403       .  A
C367        C376   1.403       .  A
C372        C373   1.400       .  A
C372        H377   1.083       .  S
C373        C374   1.408       .  A
C373        H378   1.083       .  S
C374        C375   1.406       .  A
C375        C376   1.400       .  A
C375        H379   1.083       .  S
C376        H380   1.083       .  S
C381        C382   1.406       .  A
C381        C386   1.396       .  A
C381        H391   1.083       .  S
C382        C383   1.408       .  A
C382        C387   1.489       .  S
C383        C384   1.404       .  A
C383        H388   1.083       .  S
C384        C385   1.403       .  A
C384        H389   1.083       .  S
C385        C386   1.402       .  A
C386        H390   1.084       .  S
C387        C392   1.404       .  A
C387        C396   1.409       .  A
C392        C393   1.397       .  A
C392        H397   1.083       .  S
C393        C394   1.408       .  A
C393        H398   1.083       .  S
C394        C395   1.405       .  A
C395        C396   1.405       .  A
C395        H399   1.083       .  S
C396        H400   1.083       .  S
C401        C402   1.410       .  A
C401        C406   1.406       .  A
C401        H411   1.083       .  S
C402        C403   1.405       .  A
C402        C407   1.495       .  S
C403        C404   1.397       .  A
C403        H408   1.083       .  S
C404        C405   1.405       .  A
C404        H409   1.082       .  S
C405        C406   1.407       .  A
C406        H410   1.082       .  S
C407        C412   1.406       .  A
C407        C416   1.408       .  A
C412        C413   1.403       .  A
C412        H417   1.083       .  S
C413        C414   1.410       .  A
C413        H418   1.083       .  S
C414        C415   1.406       .  A
C415        C416   1.401       .  A
C415        H419   1.083       .  S
C416        H420   1.083       .  S
C421        C422   1.412   1_556  A
C421        C426   1.405       .  A
C421        H431   1.082       .  S
C422        C423   1.409       .  A
C422        C427   1.498       .  S
C423        C424   1.394   1_554  A
C423        H428   1.082       .  S
C424        C425   1.400       .  A
C424        H429   1.084       .  S
C425        C426   1.401       .  A
C426        H430   1.083       .  S
C427        C432   1.411       .  A
C427        C436   1.409       .  A
C432        C433   1.403       .  A
C432        H437   1.082       .  S
C433        C434   1.402       .  A
C433        H438   1.083       .  S
C434        C435   1.403       .  A
C435        C436   1.397       .  A
C435        H439   1.084       .  S
C436        H440   1.082       .  S
C441        C442   1.406       .  A
C441        C446   1.400       .  A
C441        H451   1.083       .  S
C442        C443   1.402       .  A
C442        C447   1.483       .  S
C443        C444   1.399       .  A
C443        H448   1.083       .  S
C444        C445   1.408       .  A
C444        H449   1.083       .  S
C445        C446   1.405       .  A
C446        H450   1.083       .  S
C447        C452   1.406       .  A
C447        C456   1.403       .  A
C452        C453   1.402       .  A
C452        H457   1.083       .  S
C453        C454   1.404       .  A
C453        H458   1.083       .  S
C454        C455   1.405       .  A
C455        C456   1.397       .  A
C455        H459   1.083       .  S
C456        H460   1.083       .  S
C461        C462   1.405       .  A
C461        C466   1.397   1_455  A
C461        H471   1.083   1_455  S
C462        C463   1.409       .  A
C462        C467   1.492       .  S
C463        C464   1.402       .  A
C463        H468   1.082       .  S
C464        C465   1.406   1_455  A
C464        H469   1.083       .  S
C465        C466   1.408       .  A
C466        H470   1.083       .  S
C467        C472   1.407       .  A
C467        C476   1.409       .  A
C472        C473   1.395       .  A
C472        H477   1.082       .  S
C473        C474   1.403       .  A
C473        H478   1.083       .  S
C474        C475   1.404       .  A
C475        C476   1.403       .  A
C475        H479   1.083       .  S
C476        H480   1.083       .  S
C481        C482   1.406       .  A
C481        C486   1.399       .  A
C481        H491   1.083       .  S
C482        C483   1.407       .  A
C482        C487   1.491       .  S
C483        C484   1.401   1_545  A
C483        H488   1.083       .  S
C484        C485   1.407   1_565  A
C484        H489   1.083       .  S
C485        C486   1.407       .  A
C486        H490   1.083       .  S
C487        C492   1.407       .  A
C487        C496   1.408       .  A
C492        C493   1.399       .  A
C492        H497   1.083       .  S
C493        C494   1.404       .  A
C493        H498   1.082       .  S
C494        C495   1.404       .  A
C495        C496   1.400       .  A
C495        H499   1.082       .  S
C496        H500   1.083       .  S
C501        C502   1.408       .  A
C501        C506   1.403   1_545  A
C501        H511   1.083       .  S
C502        C503   1.405       .  A
C502        C507   1.490       .  S
C503        C504   1.399       .  A
C503        H508   1.083       .  S
C504        C505   1.406   1_545  A
C504        H509   1.083       .  S
C505        C506   1.405       .  A
C506        H510   1.083   1_455  S
C507        C512   1.406       .  A
C507        C516   1.406       .  A
C512        C513   1.401       .  A
C512        H517   1.083       .  S
C513        C514   1.405       .  A
C513        H518   1.080       .  S
C514        C515   1.405       .  A
C515        C516   1.401       .  A
C515        H519   1.082       .  S
C516        H520   1.083       .  S
C521        C522   1.408       .  A
C521        C526   1.398       .  A
C521        H531   1.082       .  S
C522        C523   1.409       .  A
C522        C527   1.495       .  S
C523        C524   1.399       .  A
C523        H528   1.082       .  S
C524        C525   1.405       .  A
C524        H529   1.083   1_565  S
C525        C526   1.405       .  A
C526        H530   1.083       .  S
C527        C532   1.411       .  A
C527        C536   1.410       .  A
C532        C533   1.398       .  A
C532        H537   1.082       .  S
C533        C534   1.398       .  A
C533        H538   1.083       .  S
C534        C535   1.399       .  A
C535        C536   1.398       .  A
C535        H539   1.083       .  S
C536        H540   1.082       .  S
C541        C542   1.407       .  A
C541        C546   1.405       .  A
C541        H551   1.083       .  S
C542        C543   1.404       .  A
C542        C547   1.483       .  S
C543        C544   1.388       .  A
C543        H548   1.083       .  S
C544        C545   1.402       .  A
C544        H549   1.083       .  S
C545        C546   1.407       .  A
C546        H550   1.083       .  S
C547        C552   1.406       .  A
C547        C556   1.406       .  A
C552        C553   1.401       .  A
C552        H557   1.083       .  S
C553        C554   1.402       .  A
C553        H558   1.083   1_556  S
C554        C555   1.400       .  A
C555        C556   1.394       .  A
C555        H559   1.083       .  S
C556        H560   1.083       .  S
C561        C562   1.409       .  A
C561        C566   1.399       .  A
C561        H571   1.082       .  S
C562        C563   1.409       .  A
C562        C567   1.495       .  S
C563        C564   1.399       .  A
C563        H568   1.082       .  S
C564        C565   1.404       .  A
C564        H569   1.083       .  S
C565        C566   1.404       .  A
C566        H570   1.083       .  S
C567        C572   1.410       .  A
C567        C576   1.407       .  A
C572        C573   1.401       .  A
C572        H577   1.082       .  S
C573        C574   1.402       .  A
C573        H578   1.081       .  S
C574        C575   1.402       .  A
C575        C576   1.394       .  A
C575        H579   1.084       .  S
C576        H580   1.082       .  S
C581        C582   1.407       .  A
C581        C586   1.400       .  A
C581        H591   1.083       .  S
C582        C583   1.406       .  A
C582        C587   1.490       .  S
C583        C584   1.401       .  A
C583        H588   1.083       .  S
C584        C585   1.408       .  A
C584        H589   1.083       .  S
C585        C586   1.406       .  A
C586        H590   1.083       .  S
C587        C592   1.406       .  A
C587        C596   1.408       .  A
C592        C593   1.398       .  A
C592        H597   1.083       .  S
C593        C594   1.403       .  A
C593        H598   1.081       .  S
C594        C595   1.405       .  A
C595        C596   1.402       .  A
C595        H599   1.082       .  S
C596        H600   1.083       .  S
C601        C602   1.409       .  A
C601        C606   1.397       .  A
C601        H611   1.082       .  S
C602        C603   1.409       .  A
C602        C607   1.493       .  S
C603        C604   1.398       .  A
C603        H608   1.082       .  S
C604        C605   1.400       .  A
C604        H609   1.083       .  S
C605        C606   1.400       .  A
C606        H610   1.084       .  S
C607        C612   1.408       .  A
C607        C616   1.410       .  A
C612        C613   1.397   1_455  A
C612        H617   1.082   1_455  S
C613        C614   1.404   1_655  A
C613        H618   1.083       .  S
C614        C615   1.402       .  A
C615        C616   1.397       .  A
C615        H619   1.083       .  S
C616        H620   1.082       .  S
C621        C622   1.404       .  A
C621        C626   1.402       .  A
C621        H631   1.083       .  S
C622        C623   1.406       .  A
C622        C627   1.485       .  S
C623        C624   1.397       .  A
C623        H628   1.083       .  S
C624        C625   1.406       .  A
C624        H629   1.083       .  S
C625        C626   1.409       .  A
C626        H630   1.083       .  S
C627        C632   1.408       .  A
C627        C636   1.403       .  A
C632        C633   1.404       .  A
C632        H637   1.083       .  S
C633        C634   1.403       .  A
C633        H638   1.083       .  S
C634        C635   1.403       .  A
C635        C636   1.394       .  A
C635        H639   1.083       .  S
C636        H640   1.083       .  S
