geometry optimzed in LAMMPS
_audit_creation_date              2020-11-30 
_audit_creation_method            'lammps2cif' 
_symmetry_space_group_name_H-M    'P1' 
_symmetry_Int_Tables_number       1 
_symmetry_cell_setting            triclinic 
loop_ 
_symmetry_equiv_pos_as_xyz 
  x,y,z 
_cell_length_a                    35.99412026 
_cell_length_b                    37.662547105225165 
_cell_length_c                    41.47082633118271 
_cell_angle_alpha                 90.48634882148781 
_cell_angle_beta                  89.9457772419073 
_cell_angle_gamma                 90.14519755767628 
loop_ 
_atom_site_label 
_atom_site_type_symbol 
_atom_site_fract_x 
_atom_site_fract_y 
_atom_site_fract_z 
_atom_site_charge 
N1          N  0.17007341  0.82195364  0.39794543    -0.00800
C2          C  0.19687210  0.79768674  0.39158301     0.01700
C3          C  0.20800630  0.78143537  0.41967461    -0.21100
C4          C  0.18729047  0.79627133  0.44425223    -0.21300
C5          C  0.16432240  0.82101473  0.43021286     0.01600
H6          H  0.22894518  0.76106419  0.42205765     0.15400
H7          H  0.18884665  0.78973253  0.46957029     0.15500
N8          N  0.72668739  0.82147599  0.03227097    -0.00800
C9          C  0.69901750  0.79795927  0.03822845     0.01700
C10         C  0.68725997  0.78218446  0.00982877    -0.21100
C11         C  0.70849430  0.79651604  0.98550411    -0.21300
C12         C  0.73240447  0.82049211  0.99999132     0.01600
H13         H  0.66578205  0.76222477  0.00710984     0.15400
H14         H  0.70683736  0.78996610  0.96009068     0.15500
O15         O  0.00205840  0.94495464  0.76666344    -0.75900
C16         C  0.89763869  0.89903046  0.79494106     0.85200
O17         O  0.99958458  0.82640227  0.71742602    -0.77000
O18         O  0.86921056  0.85830662  0.69905280    -0.78500
O19         O  0.92050436  0.97439097  0.67701330    -0.78300
O20         O  0.99891707  0.97680572  0.72160597    -0.76900
Zn21       Zn  0.97195569  0.90028868  0.75873841     1.55700
O22         O  0.87096263  0.94716135  0.69807535    -0.78300
Cd23       Cd  0.96591362  0.94475671  0.69203062     1.59700
Cd24       Cd  0.96342072  0.85779868  0.69094076     1.59600
O25         O  0.99589684  0.93075855  0.65073089    -0.78300
O26         O  0.94885080  0.90144099  0.71610673    -1.88800
Cd27       Cd  0.89321714  0.90277007  0.72085283     1.59900
O28         O  0.99122598  0.87160195  0.64895633    -0.78200
O29         O  0.87819871  0.90233658  0.76944852    -0.76900
C30         C  0.01403556  0.83102506  0.74518515     0.85600
C31         C  0.01017811  0.97247539  0.75044457     0.85300
O32         O  0.93298337  0.89735242  0.79411524    -0.75800
C33         C  0.88554452  0.97191574  0.68144123     0.86100
O34         O  0.00629278  0.85783529  0.76287870    -0.75900
C35         C  0.00227726  0.90089716  0.63710835     0.86200
C36         C  0.88217816  0.83186199  0.68333533     0.86600
O37         O  0.91686871  0.82781207  0.67827004    -0.78400
N38         N  0.21895526  0.65205805  0.89977113    -0.00800
C39         C  0.19058032  0.67461988  0.89397673     0.01700
C40         C  0.17766840  0.68906981  0.92257328    -0.21100
C41         C  0.19899586  0.67484067  0.94684239    -0.21300
C42         C  0.22407680  0.65228312  0.93208247     0.01600
H43         H  0.15548753  0.70818002  0.92545845     0.15400
H44         H  0.19668217  0.68059836  0.97237008     0.15500
N45         N  0.67281308  0.65118856  0.52869596    -0.00800
C46         C  0.70178626  0.67340920  0.53453891     0.01700
C47         C  0.71499932  0.68727538  0.50600739    -0.21100
C48         C  0.69335741  0.67314502  0.48170433    -0.21300
C49         C  0.66775205  0.65119201  0.49632557     0.01600
H50         H  0.73764458  0.70595581  0.50319627     0.15400
H51         H  0.69577182  0.67861685  0.45621072     0.15500
O52         O  0.39264552  0.53208111  0.26410362    -0.75900
C53         C  0.49683446  0.57887685  0.29159586     0.85200
O54         O  0.39502217  0.65000729  0.21472044    -0.77000
O55         O  0.52583350  0.61619989  0.19613606    -0.78500
O56         O  0.47212633  0.50050095  0.17449840    -0.78300
O57         O  0.39380909  0.50027358  0.21847042    -0.76900
Zn58       Zn  0.42247789  0.57671086  0.25582413     1.55700
O59         O  0.52217909  0.52714569  0.19560911    -0.78300
Cd60       Cd  0.42737303  0.53146498  0.18900098     1.59700
Cd61       Cd  0.43174648  0.61847953  0.18829609     1.59600
O62         O  0.39846897  0.54547338  0.14740002    -0.78300
O63         O  0.44535042  0.57481051  0.21312784    -1.88800
Cd64       Cd  0.50087905  0.57262593  0.21772962     1.59900
O65         O  0.40511751  0.60446186  0.14560485    -0.78200
O66         O  0.51608439  0.57437310  0.26608780    -0.76900
C67         C  0.38040460  0.64565669  0.24241945     0.85600
C68         C  0.38359814  0.50467791  0.24767800     0.85300
O69         O  0.46151656  0.58084910  0.29095797    -0.75800
C70         C  0.50706485  0.50222285  0.17921813     0.86100
O71         O  0.38806831  0.61905732  0.25996243    -0.75900
C72         C  0.39348345  0.57522630  0.13359506     0.86200
C73         C  0.51344107  0.64336673  0.18158235     0.86600
O74         O  0.47881974  0.64834775  0.17694435    -0.78400
N75         N  0.23369361  0.31656888  0.39947123    -0.00800
C76         C  0.20741853  0.29158200  0.39382310     0.01700
C77         C  0.19781937  0.27477447  0.42211022    -0.21100
C78         C  0.21910951  0.29005252  0.44611028    -0.21300
C79         C  0.24076997  0.31555363  0.43145104     0.01600
H80         H  0.17749220  0.25382249  0.42500596     0.15400
H81         H  0.21876088  0.28334364  0.47142886     0.15500
N82         N  0.65915046  0.30867007  0.03304706    -0.00800
C83         C  0.68497205  0.28344780  0.03880025     0.01700
C84         C  0.69387979  0.26565173  0.01059579    -0.21100
C85         C  0.67266481  0.28049418  0.98659157    -0.21300
C86         C  0.65167551  0.30677151  0.00110007     0.01600
H87         H  0.71380216  0.24438208  0.00773147     0.15400
H88         H  0.67268767  0.27303522  0.96133581     0.15500
O89         O  0.46298967  0.39617408  0.79457168    -0.75900
C90         C  0.38426613  0.47045559  0.75199812     0.85200
O91         O  0.39678056  0.32552999  0.71780454    -0.77000
O92         O  0.40070038  0.42965530  0.65206572    -0.78500
O93         O  0.52402201  0.44948117  0.69829403    -0.78300
O94         O  0.51765354  0.40450827  0.77024515    -0.76900
Zn95       Zn  0.42394804  0.39922037  0.75965500     1.55700
O96         O  0.47363083  0.47558701  0.67802826    -0.78300
Cd97       Cd  0.50273926  0.40486981  0.72173083     1.58500
Cd98       Cd  0.43380119  0.35739583  0.69237706     1.59600
O99         O  0.52775794  0.36088846  0.70053457    -0.78300
O100        O  0.44723491  0.40152517  0.71726460    -1.88800
Cd101      Cd  0.42930629  0.44452070  0.69352387     1.59900
O102        O  0.48085699  0.32797765  0.68132751    -0.78200
O103        O  0.39520414  0.47524552  0.72310760    -0.76900
C104        C  0.38212766  0.32975095  0.74553827     0.85600
C105        C  0.49821641  0.39929855  0.79550718     0.85300
O106        O  0.39327822  0.44316936  0.76810512    -0.75800
C107        C  0.50871498  0.47380314  0.68173220     0.86100
O108        O  0.38987001  0.35636083  0.76349159    -0.75900
C109        C  0.51540156  0.33336662  0.68600745     0.86200
C110        C  0.39641585  0.39979980  0.63784896     0.86600
O111        O  0.40815048  0.37076726  0.64956542    -0.78400
N112        N  0.16175890  0.16560435  0.89848292    -0.00800
C113        C  0.18796840  0.19036265  0.89196432     0.01700
C114        C  0.19693706  0.20920518  0.91960502    -0.21100
C115        C  0.17547649  0.19539334  0.94405788    -0.21300
C116        C  0.15426141  0.16867231  0.93036521     0.01600
H117        H  0.21714338  0.23040630  0.92183362     0.15400
H118        H  0.17565019  0.20367951  0.96910589     0.15500
N119        N  0.72636928  0.15642908  0.53341712    -0.00800
C120        C  0.69850087  0.17961925  0.53940199     0.01700
C121        C  0.68700182  0.19537326  0.51118248    -0.21100
C122        C  0.70866092  0.18132314  0.48686559    -0.21300
C123        C  0.73247874  0.15757469  0.50125478     0.01600
H124        H  0.66532768  0.21500257  0.50857296     0.15400
H125        H  0.70726016  0.18780330  0.46152434     0.15500
O126        O  0.93199168  0.08309784  0.29482342    -0.75900
C127        C  0.01186809  0.00849740  0.25145238     0.85200
O128        O  0.99978749  0.15291190  0.21983180    -0.77000
O129        O  0.99670652  0.05055882  0.15141931    -0.78500
O130        O  0.87330720  0.02946445  0.19853071    -0.78300
O131        O  0.87774575  0.07607248  0.26953851    -0.76900
Zn132      Zn  0.97140941  0.07929609  0.26012814     1.55700
O133        O  0.92397627  0.00368907  0.17779708    -0.78300
Cd134      Cd  0.89368537  0.07488239  0.22136301     1.59700
Cd135      Cd  0.96250608  0.12224646  0.19325070     1.59600
O136        O  0.86854774  0.11806031  0.19969734    -0.78300
O137        O  0.94917696  0.07791944  0.21729542    -1.88800
Cd138      Cd  0.96814600  0.03531321  0.19286937     1.59900
O139        O  0.91536182  0.15192742  0.18226014    -0.78200
O140        O  0.00252039  0.00465339  0.22197377    -0.76900
C141        C  0.01454460  0.14776491  0.24730638     0.85600
C142        C  0.89669974  0.08069414  0.29517617     0.85300
O143        O  0.00142641  0.03501031  0.26838008    -0.75800
C144        C  0.88892703  0.00498426  0.18202812     0.86100
O145        O  0.00628643  0.12113245  0.26462374    -0.75900
C146        C  0.88073741  0.14586461  0.18594294     0.86200
C147        C  0.00102887  0.08057801  0.13789161     0.86600
O148        O  0.98893467  0.10940037  0.15025495    -0.78400
C149        C  0.80282091  0.11195846  0.43725585     0.19700
C150        C  0.83920720  0.12444710  0.43307672    -0.09500
C151        C  0.85896974  0.11587189  0.40498380    -0.10300
C152        C  0.84242706  0.09484068  0.38088275     0.21200
C153        C  0.80632576  0.08175722  0.38537363    -0.12400
C154        C  0.78658138  0.09031941  0.41345718    -0.10600
C155        C  0.86175583  0.08813502  0.35096285     0.02200
C156        C  0.87762614  0.08394696  0.32554625    -0.30600
C157        C  0.78079756  0.12424525  0.46414862     0.03600
C158        C  0.75998216  0.13764484  0.48352751    -0.32300
H159        H  0.85189737  0.14156430  0.45108961     0.14600
H160        H  0.88680420  0.12629630  0.40173378     0.14400
H161        H  0.79316108  0.06563614  0.36687942     0.14300
H162        H  0.75829095  0.08087659  0.41620697     0.13300
C163        C  0.08957575  0.11664427  0.99491021     0.19700
C164        C  0.05291213  0.12728072  0.00093725    -0.09500
C165        C  0.03468730  0.11639244  0.02903633    -0.10300
C166        C  0.05298527  0.09485068  0.05136901     0.21200
C167        C  0.08931281  0.08343198  0.04494500    -0.12400
C168        C  0.10754187  0.09431287  0.01682025    -0.10600
C169        C  0.03528196  0.08654517  0.08168090     0.02200
C170        C  0.02003880  0.08232942  0.10736361    -0.30600
C171        C  0.10994653  0.13144891  0.96814168     0.03600
C172        C  0.12895204  0.14681362  0.94865011    -0.32300
H173        H  0.03882196  0.14482596  0.98442541     0.14600
H174        H  0.00667789  0.12557691  0.03377074     0.14400
H175        H  0.10386605  0.06694790  0.06204945     0.14300
H176        H  0.13602357  0.08618678  0.01264799     0.13300
C177        C  0.63914580  0.21903700  0.61346564     0.19700
C178        C  0.65250363  0.24583243  0.63409469    -0.09500
C179        C  0.62757947  0.26746084  0.65117104    -0.10300
C180        C  0.58917490  0.26247076  0.64761378     0.21200
C181        C  0.57586654  0.23510944  0.62762152    -0.12400
C182        C  0.60075650  0.21349769  0.61058357    -0.10600
C183        C  0.56342152  0.28663786  0.66283795     0.02200
C184        C  0.54152796  0.30762787  0.67403177    -0.30600
C185        C  0.66420710  0.20022673  0.59226480     0.03600
C186        C  0.68232567  0.18805067  0.57032441    -0.32300
H187        H  0.68208549  0.25075388  0.63616364     0.14600
H188        H  0.63821009  0.28865153  0.66640683     0.14400
H189        H  0.54625024  0.23111488  0.62450761     0.14300
H190        H  0.59004863  0.19325888  0.59434453     0.13300
C191        C  0.25045051  0.22340738  0.81707356     0.19700
C192        C  0.24129725  0.25615018  0.80340787    -0.09500
C193        C  0.26797191  0.27539350  0.78617900    -0.10300
C194        C  0.30410321  0.26210968  0.78250481     0.21200
C195        C  0.31293885  0.22878375  0.79521485    -0.12400
C196        C  0.28622222  0.20951459  0.81247250    -0.10600
C197        C  0.33249207  0.28387295  0.76773533     0.02200
C198        C  0.35560006  0.30395383  0.75696079    -0.30600
C199        C  0.22486185  0.20658978  0.83911966     0.03600
C200        C  0.20581308  0.19649001  0.86127418    -0.32300
H201        H  0.21393172  0.26746031  0.80710361     0.14600
H202        H  0.26077069  0.30113317  0.77664139     0.14400
H203        H  0.34079418  0.21821895  0.79269266     0.14300
H204        H  0.29385747  0.18448008  0.82321924     0.13300
C205        C  0.54904058  0.38085415  0.88176562     0.19700
C206        C  0.53222279  0.35608632  0.90223447    -0.09500
C207        C  0.55049867  0.34494947  0.93017349    -0.10300
C208        C  0.58570350  0.35856282  0.93789242     0.21200
C209        C  0.60215577  0.38391430  0.91779119    -0.12400
C210        C  0.58388189  0.39504556  0.88984203    -0.10600
C211        C  0.60647109  0.34397154  0.96443982     0.02200
C212        C  0.62595894  0.32877417  0.98358071    -0.30600
C213        C  0.53144801  0.39011492  0.85170534     0.03600
C214        C  0.51663096  0.39566282  0.82610033    -0.32300
H215        H  0.50538904  0.34475125  0.89619749     0.14600
H216        H  0.53764739  0.32503522  0.94525128     0.14400
H217        H  0.62954265  0.39433884  0.92324180     0.14300
H218        H  0.59728911  0.41404315  0.87417150     0.13300
C219        C  0.74894866  0.24918591  0.11192261     0.19700
C220        C  0.78681875  0.25618236  0.10710366    -0.09500
C221        C  0.81372330  0.23748109  0.12435045    -0.10300
C222        C  0.80303115  0.21156153  0.14656423     0.21200
C223        C  0.76512203  0.20513308  0.15202095    -0.12400
C224        C  0.73815830  0.22385106  0.13471089    -0.10600
C225        C  0.83093313  0.19013629  0.16211164     0.02200
C226        C  0.85416739  0.17084448  0.17356988    -0.30600
C227        C  0.72188631  0.26526649  0.09091806     0.03600
C228        C  0.70252903  0.27593050  0.06927668    -0.32300
H229        H  0.79558102  0.27531977  0.08928525     0.14600
H230        H  0.84288927  0.24257987  0.11972354     0.14400
H231        H  0.75645285  0.18503052  0.16897926     0.14300
H232        H  0.70900252  0.21782055  0.13840124     0.13300
C233        C  0.30848451  0.36667362  0.49418798     0.19700
C234        C  0.29330595  0.39284071  0.51447582    -0.09500
C235        C  0.31187298  0.40303689  0.54272705    -0.10300
C236        C  0.34567018  0.38704599  0.55082844     0.21200
C237        C  0.36131955  0.36158168  0.53010132    -0.12400
C238        C  0.34276268  0.35138538  0.50188039    -0.10600
C239        C  0.36312936  0.39482627  0.58131637     0.02200
C240        C  0.37794463  0.39854615  0.60720252    -0.30600
C241        C  0.28702321  0.35264278  0.46768254     0.03600
C242        C  0.26696431  0.33751743  0.44874245    -0.32300
H243        H  0.26657222  0.40450369  0.50900458     0.14600
H244        H  0.29939714  0.42257972  0.55866007     0.14400
H245        H  0.38733032  0.34886644  0.53622803     0.14300
H246        H  0.35452673  0.33079420  0.48663647     0.13300
C247        C  0.14575138  0.25433227  0.32005034     0.19700
C248        C  0.10800704  0.26316654  0.32190861    -0.09500
C249        C  0.08164336  0.24324272  0.30479906    -0.10300
C250        C  0.09281628  0.21430512  0.28573450     0.21200
C251        C  0.13067159  0.20595179  0.28322004    -0.12400
C252        C  0.15707880  0.22589767  0.30038063    -0.10600
C253        C  0.06523626  0.19205090  0.27041223     0.02200
C254        C  0.04185445  0.17251750  0.25919195    -0.30600
C255        C  0.17183055  0.27169017  0.34133829     0.03600
C256        C  0.19046936  0.28317142  0.36324118    -0.32300
H257        H  0.09883550  0.28471767  0.33740862     0.14600
H258        H  0.05246309  0.24981958  0.30712414     0.14400
H259        H  0.13963863  0.18350020  0.26872567     0.14300
H260        H  0.18611949  0.21845506  0.29912148     0.13300
C261        C  0.28443035  0.38392547  0.33749034     0.19700
C262        C  0.29666418  0.41662310  0.34992523    -0.09500
C263        C  0.31588484  0.44040744  0.33020554    -0.10300
C264        C  0.32305210  0.43170207  0.29786264     0.21200
C265        C  0.31065628  0.39906372  0.28533039    -0.12400
C266        C  0.29138850  0.37523439  0.30508836    -0.10600
C267        C  0.34358863  0.45618888  0.27795122     0.02200
C268        C  0.36145077  0.47775874  0.26302632    -0.30600
C269        C  0.26542995  0.35922415  0.35825824     0.03600
C270        C  0.25040010  0.33925394  0.37685122    -0.32300
H271        H  0.29154220  0.42364848  0.37494387     0.14600
H272        H  0.32533945  0.46548588  0.34021914     0.14400
H273        H  0.31605409  0.39196329  0.26037449     0.14300
H274        H  0.28214585  0.35003244  0.29519334     0.13300
C275        C  0.60746936  0.37739393  0.09391512     0.19700
C276        C  0.62071062  0.38704015  0.12456706    -0.09500
C277        C  0.60120037  0.41177934  0.14349662    -0.10300
C278        C  0.56834607  0.42697556  0.13184407     0.21200
C279        C  0.55506490  0.41711274  0.10129793    -0.12400
C280        C  0.57452660  0.39244740  0.08241605    -0.10600
C281        C  0.54834030  0.45303767  0.15075425     0.02200
C282        C  0.53023715  0.47532228  0.16478180    -0.30600
C283        C  0.62755480  0.35242491  0.07390760     0.03600
C284        C  0.64278831  0.33202223  0.05558170    -0.32300
H285        H  0.64616410  0.37558997  0.13375302     0.14600
H286        H  0.61178082  0.41916506  0.16703750     0.14400
H287        H  0.52971915  0.42865526  0.09197837     0.14300
H288        H  0.56399896  0.38525037  0.05880744     0.13300
C289        C  0.57155720  0.54405594  0.62986022     0.19700
C290        C  0.55834875  0.55326345  0.59923008    -0.09500
C291        C  0.57907493  0.57596856  0.57948960    -0.10300
C292        C  0.61320240  0.58971539  0.59016916     0.21200
C293        C  0.62643347  0.58051817  0.62078422    -0.12400
C294        C  0.60569708  0.55779204  0.64053672    -0.10600
C295        C  0.63480060  0.61271201  0.56950975     0.02200
C296        C  0.65256117  0.63105204  0.55123453    -0.30600
C297        C  0.55027358  0.52017917  0.64998031     0.03600
C298        C  0.53182236  0.49953267  0.66555270    -0.32300
H299        H  0.53211854  0.54280226  0.59057549     0.14600
H300        H  0.56853083  0.58270568  0.55583239     0.14400
H301        H  0.65278448  0.59079434  0.62932327     0.14300
H302        H  0.61635909  0.55084620  0.66409001     0.13300
C303        C  0.55235166  0.59352537  0.37680418     0.19700
C304        C  0.58673815  0.57708447  0.38185536    -0.09500
C305        C  0.60754796  0.58504244  0.40953280    -0.10300
C306        C  0.59412103  0.60944813  0.43243153     0.21200
C307        C  0.55945626  0.62547081  0.42763331    -0.12400
C308        C  0.53863593  0.61750865  0.39994507    -0.10600
C309        C  0.61737005  0.62043727  0.45913310     0.02200
C310        C  0.63907952  0.63255759  0.47857250    -0.30600
C311        C  0.53198788  0.58694223  0.34730918     0.03600
C312        C  0.51568775  0.58254625  0.32209129    -0.32300
H313        H  0.59777935  0.55865372  0.36412044     0.14600
H314        H  0.63449771  0.57278848  0.41269957     0.14400
H315        H  0.54893217  0.64470741  0.44489616     0.14300
H316        H  0.51219112  0.63056470  0.39628950     0.13300
C317        C  0.27832373  0.58978997  0.83860009     0.19700
C318        C  0.26194303  0.57178503  0.81250224    -0.09500
C319        C  0.28307244  0.54837347  0.79357350    -0.10300
C320        C  0.32069093  0.54285625  0.80065286     0.21200
C321        C  0.33705743  0.56094926  0.82669215    -0.12400
C322        C  0.31595209  0.58432606  0.84560338    -0.10600
C323        C  0.34236857  0.51808723  0.78179142     0.02200
C324        C  0.36117573  0.49676585  0.76729452    -0.30600
C325        C  0.25645857  0.61306777  0.85880706     0.03600
C326        C  0.23884721  0.63161424  0.87710358    -0.32300
H327        H  0.23282917  0.57564095  0.80694452     0.14600
H328        H  0.27005427  0.53443243  0.77361004     0.14400
H329        H  0.36606417  0.55679713  0.83251155     0.14300
H330        H  0.32888233  0.59792342  0.86580555     0.13300
C331        C  0.33818230  0.58697398  0.04833693     0.19700
C332        C  0.30343319  0.57136015  0.04237349    -0.09500
C333        C  0.28288525  0.58098989  0.01514721    -0.10300
C334        C  0.29692379  0.60626553  0.99366005     0.21200
C335        C  0.33211372  0.62116467  0.99915573    -0.12400
C336        C  0.35267191  0.61152304  0.02637303    -0.10600
C337        C  0.27372770  0.61939216  0.96798705     0.02200
C338        C  0.25216256  0.63290167  0.94946648    -0.30600
C339        C  0.35784071  0.57972588  0.07793623     0.03600
C340        C  0.37402666  0.57620992  0.10325306    -0.32300
H341        H  0.29179664  0.55251061  0.05919532     0.14600
H342        H  0.25556739  0.56952241  0.01138569     0.14400
H343        H  0.34315957  0.64098495  0.98295688     0.14300
H344        H  0.37940825  0.62394831  0.03075513     0.13300
C345        C  0.75872214  0.71739423  0.60845504     0.19700
C346        C  0.79567562  0.70678927  0.61303671    -0.09500
C347        C  0.82046548  0.72865242  0.63016847    -0.10300
C348        C  0.80857275  0.76136521  0.64279520     0.21200
C349        C  0.77144291  0.77164444  0.63878167    -0.12400
C350        C  0.74665826  0.74978727  0.62165044    -0.10600
C351        C  0.83474707  0.78512329  0.65843057     0.02200
C352        C  0.85655354  0.80594039  0.67033540    -0.30600
C353        C  0.73458041  0.69713520  0.58725657     0.03600
C354        C  0.71704193  0.68345871  0.56555642    -0.32300
H355        H  0.80558544  0.68212714  0.60259960     0.14600
H356        H  0.84911954  0.72041094  0.63291415     0.14400
H357        H  0.76187957  0.79690147  0.64823395     0.14300
H358        H  0.71835762  0.75863039  0.61791956     0.13300
C359        C  0.13782342  0.71803109  0.81814606     0.19700
C360        C  0.10496096  0.70375637  0.80522615    -0.09500
C361        C  0.08065855  0.72534121  0.78772955    -0.10300
C362        C  0.08899676  0.76134752  0.78311784     0.21200
C363        C  0.12243893  0.77527629  0.79512322    -0.12400
C364        C  0.14670948  0.75372210  0.81257426    -0.10600
C365        C  0.06239069  0.78459943  0.76800060     0.02200
C366        C  0.04015304  0.80525320  0.75699549    -0.30600
C367        C  0.16000539  0.69769055  0.84036580     0.03600
C368        C  0.17605488  0.68441671  0.86283213    -0.32300
H369        H  0.09750140  0.67637012  0.80964449     0.14600
H370        H  0.05484626  0.71422125  0.77867464     0.14400
H371        H  0.12919859  0.80303269  0.79186326     0.14300
H372        H  0.17177591  0.76525580  0.82273776     0.13300
C373        C  0.78197640  0.09210023  0.59484776     0.19700
C374        C  0.76353888  0.06439745  0.61068185    -0.09500
C375        C  0.78352128  0.04058184  0.62979111    -0.10300
C376        C  0.82210513  0.04428432  0.63323008     0.21200
C377        C  0.84047539  0.07215810  0.61758170    -0.12400
C378        C  0.82050550  0.09595231  0.59847793    -0.10600
C379        C  0.84307359  0.01900899  0.65194115     0.02200
C380        C  0.86174595  0.99766345  0.66632780    -0.30600
C381        C  0.76162628  0.11584581  0.57413559     0.03600
C382        C  0.74508427  0.13495942  0.55579635    -0.32300
H383        H  0.73381021  0.06100400  0.60800738     0.14600
H384        H  0.76894401  0.01910791  0.64162216     0.14400
H385        H  0.87027761  0.07529161  0.61989692     0.14300
H386        H  0.83516493  0.11713727  0.58629300     0.13300
C387        C  0.11003546  0.09580310  0.83845512     0.19700
C388        C  0.09560471  0.06469565  0.85197210    -0.09500
C389        C  0.07618893  0.04027101  0.83271214    -0.10300
C390        C  0.07100344  0.04674393  0.79979296     0.21200
C391        C  0.08546983  0.07784285  0.78621796    -0.12400
C392        C  0.10493040  0.10230765  0.80551296    -0.10600
C393        C  0.05043011  0.02158831  0.78028207     0.02200
C394        C  0.03246635  0.99964940  0.76560933    -0.30600
C395        C  0.12955745  0.12107895  0.85861152     0.03600
C396        C  0.14495717  0.14176159  0.87659974    -0.32300
H397        H  0.09924769  0.05939880  0.87738399     0.14600
H398        H  0.06508218  0.01637252  0.84353708     0.14400
H399        H  0.08159955  0.08320947  0.76085184     0.14300
H400        H  0.11586902  0.12632402  0.79477695     0.13300
C401        C  0.82626865  0.93261843  0.13205197     0.19700
C402        C  0.79834227  0.91155064  0.14577316    -0.09500
C403        C  0.77747465  0.88826530  0.12638061    -0.10300
C404        C  0.78442674  0.88592134  0.09314478     0.21200
C405        C  0.81238099  0.90696792  0.07947103    -0.12400
C406        C  0.83321468  0.93021183  0.09883443    -0.10600
C407        C  0.76293923  0.86214904  0.07293966     0.02200
C408        C  0.74579100  0.84296347  0.05475243    -0.30600
C409        C  0.84760912  0.95702580  0.15174052     0.03600
C410        C  0.86610818  0.97836774  0.16664196    -0.32300
H411        H  0.79263437  0.91318485  0.17141467     0.14600
H412        H  0.75595586  0.87219736  0.13724673     0.14400
H413        H  0.81803162  0.90545541  0.05380918     0.14300
H414        H  0.85464641  0.94635930  0.08790475     0.13300
C415        C  0.84366043  0.88508463  0.88093075     0.19700
C416        C  0.85932628  0.86266259  0.90405738    -0.09500
C417        C  0.83916008  0.85349122  0.93171601    -0.10300
C418        C  0.80317867  0.86673374  0.93652263     0.21200
C419        C  0.78785772  0.88980684  0.91376230    -0.12400
C420        C  0.80801414  0.89897220  0.88610626    -0.10600
C421        C  0.78070255  0.85406185  0.96299603     0.02200
C422        C  0.75983673  0.84054441  0.98223210    -0.30600
C423        C  0.86322443  0.89215450  0.85114696     0.03600
C424        C  0.87902971  0.89627239  0.82566381    -0.32300
H425        H  0.88676896  0.85157823  0.90033323     0.14600
H426        H  0.85122063  0.83534309  0.94888311     0.14400
H427        H  0.75992786  0.89995079  0.91695163     0.14300
H428        H  0.79546058  0.91617254  0.86841190     0.13300
C429        C  0.59043638  0.71230771  0.14477094     0.19700
C430        C  0.58367890  0.74868656  0.14086888    -0.09500
C431        C  0.60942748  0.77003144  0.12452113    -0.10300
C432        C  0.64219827  0.75515905  0.11205974     0.21200
C433        C  0.64940488  0.71901058  0.11683939    -0.12400
C434        C  0.62369287  0.69770116  0.13314056    -0.10600
C435        C  0.66611448  0.77554097  0.09106423     0.02200
C436        C  0.68354373  0.78877814  0.06926273    -0.30600
C437        C  0.56261671  0.68949442  0.15904320     0.03600
C438        C  0.53972779  0.66910612  0.16968549    -0.32300
H439        H  0.55804669  0.76035329  0.14965631     0.14600
H440        H  0.60322028  0.79777272  0.12068091     0.14400
H441        H  0.67435392  0.70699913  0.10699182     0.14300
H442        H  0.62926913  0.66966056  0.13587198     0.13300
C443        C  0.11506106  0.88825932  0.33801708     0.19700
C444        C  0.08776709  0.90985227  0.35214945    -0.09500
C445        C  0.06762970  0.93368576  0.33329284    -0.10300
C446        C  0.07455847  0.93616120  0.30012359     0.21200
C447        C  0.10194427  0.91465040  0.28594085    -0.12400
C448        C  0.12212999  0.89076227  0.30484114    -0.10600
C449        C  0.05343523  0.96078111  0.28091478     0.02200
C450        C  0.03483214  0.98207115  0.26645176    -0.30600
C451        C  0.13565171  0.86377396  0.35777806     0.03600
C452        C  0.15192160  0.84409506  0.37578383    -0.32300
H453        H  0.08204942  0.90824917  0.37772805     0.14600
H454        H  0.04659175  0.95017840  0.34460008     0.14400
H455        H  0.10763639  0.91631385  0.26036669     0.14300
H456        H  0.14320068  0.87426189  0.29359608     0.13300
C457        C  0.05796700  0.88859900  0.55180723     0.19700
C458        C  0.04206681  0.86491195  0.52946584    -0.09500
C459        C  0.06138605  0.85532661  0.50139288    -0.10300
C460        C  0.09677726  0.86940512  0.49534848     0.21200
C461        C  0.11241816  0.89364075  0.51738252    -0.12400
C462        C  0.09307647  0.90323557  0.54549718    -0.10600
C463        C  0.11834095  0.85639304  0.46830063     0.02200
C464        C  0.13814507  0.84219677  0.44848146    -0.30600
C465        C  0.03898926  0.89618822  0.58183812     0.03600
C466        C  0.02255835  0.89985480  0.60711206    -0.32300
H467        H  0.01506274  0.85321650  0.53410009     0.14600
H468        H  0.04913425  0.83625235  0.48483133     0.14400
H469        H  0.13994900  0.90441365  0.51324391     0.14300
H470        H  0.10582071  0.92140140  0.56260695     0.13300
C471        C  0.25517558  0.75786134  0.31656840     0.19700
C472        C  0.29254920  0.76811867  0.31396507    -0.09500
C473        C  0.31767964  0.74708496  0.29647428    -0.10300
C474        C  0.30567682  0.71557606  0.28149818     0.21200
C475        C  0.26811871  0.70579197  0.28339938    -0.12400
C476        C  0.24299011  0.72682127  0.30089637    -0.10600
C477        C  0.33216655  0.69222869  0.26593889     0.02200
C478        C  0.35429292  0.67154338  0.25446213    -0.30600
C479        C  0.23064076  0.77669836  0.33837870     0.03600
C480        C  0.21279178  0.78901589  0.36050349    -0.32300
H481        H  0.30250500  0.79172865  0.32631336     0.14600
H482        H  0.34666167  0.75489261  0.29538294     0.14400
H483        H  0.25847774  0.68143183  0.27212334     0.14300
H484        H  0.21432855  0.71825829  0.30306585     0.13300
loop_ 
_geom_bond_atom_site_label_1 
_geom_bond_atom_site_label_2 
_geom_bond_distance 
_geom_bond_site_symmetry_2 
_ccdc_geom_bond_type 
N1            C5   1.355       .  A
N1            C2   1.355       .  A
N1          C452   1.408       .  S
C2            C3   1.381       .  A
C2          C480   1.445       .  S
C3            C4   1.378       .  A
C3            H6   1.082       .  S
C4            C5   1.380       .  A
C4            H7   1.082       .  S
C5          C464   1.446       .  S
N8           C12   1.354   1_554  A
N8            C9   1.355       .  A
N8          C408   1.408       .  S
C9           C10   1.381       .  A
C9          C436   1.446       .  S
C10          C11   1.378   1_554  A
C10          H13   1.082       .  S
C11          C12   1.380       .  A
C11          H14   1.082       .  S
C12         C422   1.446       .  S
O15          C31   1.274       .  A
O15         Zn21   2.023   1_455  S
C16         C424   1.443       .  S
C16          O32   1.274       .  A
C16          O29   1.275       .  A
O17          C30   1.274   1_655  A
O17         Cd24   2.081       .  S
O18          C36   1.275       .  A
O18         Cd27   2.082       .  S
O19          C33   1.275       .  A
O19         Cd23   2.080       .  S
O20          C31   1.275   1_655  A
O20         Cd23   2.084       .  S
Zn21         O32   2.032       .  S
Zn21         O34   2.032   1_655  S
Zn21         O26   1.955       .  S
O22          C33   1.276       .  A
O22         Cd27   2.089       .  S
Cd23         O25   2.088       .  S
Cd23         O26   2.014       .  S
Cd24         O28   2.077       .  S
Cd24         O37   2.084       .  S
Cd24         O26   2.010       .  S
O25          C35   1.276   1_655  A
O26         Cd27   2.013       .  S
Cd27         O29   2.086       .  S
O28          C35   1.274   1_655  A
C30         C366   1.442       .  S
C30          O34   1.274       .  A
C31         C394   1.440       .  S
C33         C380   1.443       .  S
C35         C466   1.442       .  S
C36         C352   1.443       .  S
C36          O37   1.275       .  A
N38          C42   1.353       .  A
N38          C39   1.353       .  A
N38         C326   1.407       .  S
C39          C40   1.381       .  A
C39         C368   1.445       .  S
C40          C41   1.379       .  A
C40          H43   1.082       .  S
C41          C42   1.380       .  A
C41          H44   1.082       .  S
C42         C338   1.445       .  S
N45          C49   1.355       .  A
N45          C46   1.356       .  A
N45         C296   1.410       .  S
C46          C47   1.381       .  A
C46         C354   1.446       .  S
C47          C48   1.377       .  A
C47          H50   1.082       .  S
C48          C49   1.380       .  A
C48          H51   1.082       .  S
C49         C310   1.445       .  S
O52          C68   1.274       .  A
O52         Zn58   2.024       .  S
C53         C312   1.441       .  S
C53          O69   1.274       .  A
C53          O66   1.274       .  A
O54          C67   1.275       .  A
O54         Cd61   2.084       .  S
O55          C73   1.274       .  A
O55         Cd64   2.078       .  S
O56          C70   1.274       .  A
O56         Cd60   2.077       .  S
O57          C68   1.275       .  A
O57         Cd60   2.085       .  S
Zn58         O69   2.030       .  S
Zn58         O71   2.028       .  S
Zn58         O63   1.953       .  S
O59          C70   1.275       .  A
O59         Cd64   2.084       .  S
Cd60         O62   2.088       .  S
Cd60         O63   2.013       .  S
Cd61         O65   2.078       .  S
Cd61         O74   2.087       .  S
Cd61         O63   2.010       .  S
O62          C72   1.276       .  A
O63         Cd64   2.010       .  S
Cd64         O66   2.080       .  S
O65          C72   1.275       .  A
C67         C478   1.442       .  S
C67          O71   1.274       .  A
C68         C268   1.440       .  S
C70         C282   1.440       .  S
C72         C340   1.441       .  S
C73         C438   1.443       .  S
C73          O74   1.276       .  A
N75          C79   1.352       .  A
N75          C76   1.352       .  A
N75         C270   1.408       .  S
C76          C77   1.381       .  A
C76         C256   1.440       .  S
C77          C78   1.378       .  A
C77          H80   1.082       .  S
C78          C79   1.380       .  A
C78          H81   1.082       .  S
C79         C242   1.440       .  S
N82          C86   1.353       .  A
N82          C83   1.353       .  A
N82         C284   1.408       .  S
C83          C84   1.381       .  A
C83         C228   1.444       .  S
C84          C85   1.378   1_554  A
C84          H87   1.082       .  S
C85          C86   1.380   1_556  A
C85          H88   1.082       .  S
C86         C212   1.445   1_554  S
O89         C105   1.274       .  A
O89         Zn95   2.023       .  S
C90         C324   1.438       .  S
C90         O106   1.273       .  A
C90         O103   1.275       .  A
O91         C104   1.274       .  A
O91         Cd98   2.083       .  S
O92         C110   1.274       .  A
O92        Cd101   2.077       .  S
O93         C107   1.276       .  A
O93         Cd97   2.091       .  S
O94         C105   1.276       .  A
O94         Cd97   2.083       .  S
Zn95        O106   2.020       .  S
Zn95        O108   2.032       .  S
Zn95        O100   1.949       .  S
O96         C107   1.274       .  A
O96        Cd101   2.081       .  S
Cd97         O99   2.076       .  S
Cd97        O100   2.010       .  S
Cd98        O102   2.075       .  S
Cd98        O111   2.069       .  S
Cd98        O100   2.007       .  S
O99         C109   1.274       .  A
O100       Cd101   2.010       .  S
Cd101       O103   2.081       .  S
O102        C109   1.274       .  A
C104        C198   1.443       .  S
C104        O108   1.274       .  A
C105        C214   1.440       .  S
C107        C298   1.445       .  S
C109        C184   1.437       .  S
C110        C240   1.435       .  S
C110        O111   1.274       .  A
N112        C116   1.353       .  A
N112        C113   1.353       .  A
N112        C396   1.407       .  S
C113        C114   1.381       .  A
C113        C200   1.445       .  S
C114        C115   1.379       .  A
C114        H117   1.082       .  S
C115        C116   1.380       .  A
C115        H118   1.082       .  S
C116        C172   1.445       .  S
N119        C123   1.353       .  A
N119        C120   1.353       .  A
N119        C382   1.409       .  S
C120        C121   1.381       .  A
C120        C186   1.441       .  S
C121        C122   1.377       .  A
C121        H124   1.082       .  S
C122        C123   1.380       .  A
C122        H125   1.082       .  S
C123        C158   1.441       .  S
O126        C142   1.273       .  A
O126       Zn132   2.024       .  S
C127        C450   1.441   1_545  S
C127        O143   1.273       .  A
C127        O140   1.275       .  A
O128        C141   1.274   1_655  A
O128       Cd135   2.079       .  S
O129        C147   1.275   1_655  A
O129       Cd138   2.086       .  S
O130        C144   1.275       .  A
O130       Cd134   2.080       .  S
O131        C142   1.274       .  A
O131       Cd134   2.078       .  S
Zn132       O143   2.021   1_655  S
Zn132       O145   2.020   1_655  S
Zn132       O137   1.949       .  S
O133        C144   1.275       .  A
O133       Cd138   2.078       .  S
Cd134       O136   2.075       .  S
Cd134       O137   2.007       .  S
Cd135       O139   2.087       .  S
Cd135       O148   2.074       .  S
Cd135       O137   2.009       .  S
O136        C146   1.273       .  A
O137       Cd138   2.011       .  S
Cd138       O140   2.087   1_655  S
O139        C146   1.276       .  A
C141        C254   1.438       .  S
C141        O145   1.273       .  A
C142        C156   1.438       .  S
C144        C410   1.440   1_545  S
C146        C226   1.441       .  S
C147        C170   1.440       .  S
C147        O148   1.274   1_455  A
C149        C150   1.402       .  A
C149        C154   1.402       .  A
C149        C157   1.441       .  S
C150        C151   1.400       .  A
C150        H159   1.083       .  S
C151        C152   1.402       .  A
C151        H160   1.084       .  S
C152        C153   1.401       .  A
C152        C155   1.443       .  S
C153        C154   1.400       .  A
C153        H161   1.083       .  S
C154        H162   1.084       .  S
C155        C156   1.208       .  T
C157        C158   1.207       .  T
C163        C164   1.402   1_556  A
C163        C168   1.403   1_556  A
C163        C171   1.445       .  S
C164        C165   1.401       .  A
C164        H173   1.083   1_554  S
C165        C166   1.402       .  A
C165        H174   1.084       .  S
C166        C167   1.402       .  A
C166        C169   1.445       .  S
C167        C168   1.401       .  A
C167        H175   1.083       .  S
C168        H176   1.084       .  S
C169        C170   1.209       .  T
C171        C172   1.209       .  T
C177        C178   1.402       .  A
C177        C182   1.402       .  A
C177        C185   1.442       .  S
C178        C179   1.401       .  A
C178        H187   1.084       .  S
C179        C180   1.402       .  A
C179        H188   1.083       .  S
C180        C181   1.401       .  A
C180        C183   1.442       .  S
C181        C182   1.399       .  A
C181        H189   1.084       .  S
C182        H190   1.083       .  S
C183        C184   1.207       .  T
C185        C186   1.207       .  T
C191        C192   1.402       .  A
C191        C196   1.403       .  A
C191        C199   1.446       .  S
C192        C193   1.401       .  A
C192        H201   1.084       .  S
C193        C194   1.402       .  A
C193        H202   1.082       .  S
C194        C195   1.403       .  A
C194        C197   1.447       .  S
C195        C196   1.403       .  A
C195        H203   1.084       .  S
C196        H204   1.083       .  S
C197        C198   1.210       .  T
C199        C200   1.209       .  T
C205        C206   1.402       .  A
C205        C210   1.402       .  A
C205        C213   1.445       .  S
C206        C207   1.401       .  A
C206        H215   1.084       .  S
C207        C208   1.402       .  A
C207        H216   1.083       .  S
C208        C209   1.402       .  A
C208        C211   1.445       .  S
C209        C210   1.401       .  A
C209        H217   1.083       .  S
C210        H218   1.083       .  S
C211        C212   1.209       .  T
C213        C214   1.209       .  T
C219        C220   1.402       .  A
C219        C224   1.403       .  A
C219        C227   1.445       .  S
C220        C221   1.400       .  A
C220        H229   1.083       .  S
C221        C222   1.401       .  A
C221        H230   1.084       .  S
C222        C223   1.404       .  A
C222        C225   1.446       .  S
C223        C224   1.403       .  A
C223        H231   1.083       .  S
C224        H232   1.084       .  S
C225        C226   1.209       .  T
C227        C228   1.209       .  T
C233        C234   1.402       .  A
C233        C238   1.401       .  A
C233        C241   1.440       .  S
C234        C235   1.400       .  A
C234        H243   1.084       .  S
C235        C236   1.401       .  A
C235        H244   1.083       .  S
C236        C237   1.401       .  A
C236        C239   1.440       .  S
C237        C238   1.399       .  A
C237        H245   1.084       .  S
C238        H246   1.083       .  S
C239        C240   1.206       .  T
C241        C242   1.206       .  T
C247        C248   1.401       .  A
C247        C252   1.402       .  A
C247        C255   1.441       .  S
C248        C249   1.398       .  A
C248        H257   1.083       .  S
C249        C250   1.401       .  A
C249        H258   1.084       .  S
C250        C251   1.403       .  A
C250        C253   1.442       .  S
C251        C252   1.401       .  A
C251        H259   1.083       .  S
C252        H260   1.084       .  S
C253        C254   1.207       .  T
C255        C256   1.206       .  T
C261        C262   1.401       .  A
C261        C266   1.403       .  A
C261        C269   1.444       .  S
C262        C263   1.399       .  A
C262        H271   1.084       .  S
C263        C264   1.402       .  A
C263        H272   1.083       .  S
C264        C265   1.403       .  A
C264        C267   1.445       .  S
C265        C266   1.402       .  A
C265        H273   1.084       .  S
C266        H274   1.083       .  S
C267        C268   1.209       .  T
C269        C270   1.208       .  T
C275        C276   1.403       .  A
C275        C280   1.401       .  A
C275        C283   1.444       .  S
C276        C277   1.403       .  A
C276        H285   1.084       .  S
C277        C278   1.403       .  A
C277        H286   1.082       .  S
C278        C279   1.401       .  A
C278        C281   1.444       .  S
C279        C280   1.399       .  A
C279        H287   1.085       .  S
C280        H288   1.082       .  S
C281        C282   1.209       .  T
C283        C284   1.208       .  T
C289        C290   1.403       .  A
C289        C294   1.403       .  A
C289        C297   1.449       .  S
C290        C291   1.402       .  A
C290        H299   1.082       .  S
C291        C292   1.403       .  A
C291        H300   1.085       .  S
C292        C293   1.403       .  A
C292        C295   1.448       .  S
C293        C294   1.403       .  A
C293        H301   1.082       .  S
C294        H302   1.084       .  S
C295        C296   1.211       .  T
C297        C298   1.212       .  T
C303        C304   1.402       .  A
C303        C308   1.403       .  A
C303        C311   1.446       .  S
C304        C305   1.401       .  A
C304        H313   1.083       .  S
C305        C306   1.402       .  A
C305        H314   1.084       .  S
C306        C307   1.402       .  A
C306        C309   1.446       .  S
C307        C308   1.402       .  A
C307        H315   1.083       .  S
C308        H316   1.084       .  S
C309        C310   1.209       .  T
C311        C312   1.210       .  T
C317        C318   1.402       .  A
C317        C322   1.402       .  A
C317        C325   1.442       .  S
C318        C319   1.401       .  A
C318        H327   1.084       .  S
C319        C320   1.402       .  A
C319        H328   1.083       .  S
C320        C321   1.401       .  A
C320        C323   1.443       .  S
C321        C322   1.399       .  A
C321        H329   1.084       .  S
C322        H330   1.083       .  S
C323        C324   1.208       .  T
C325        C326   1.207       .  T
C331        C332   1.402       .  A
C331        C336   1.403       .  A
C331        C339   1.446       .  S
C332        C333   1.401       .  A
C332        H341   1.083       .  S
C333        C334   1.402   1_554  A
C333        H342   1.084       .  S
C334        C335   1.402       .  A
C334        C337   1.445       .  S
C335        C336   1.401   1_556  A
C335        H343   1.083       .  S
C336        H344   1.084       .  S
C337        C338   1.209       .  T
C339        C340   1.210       .  T
C345        C346   1.403       .  A
C345        C350   1.403       .  A
C345        C353   1.448       .  S
C346        C347   1.402       .  A
C346        H355   1.083       .  S
C347        C348   1.402       .  A
C347        H356   1.084       .  S
C348        C349   1.403       .  A
C348        C351   1.448       .  S
C349        C350   1.402       .  A
C349        H357   1.083       .  S
C350        H358   1.084       .  S
C351        C352   1.211       .  T
C353        C354   1.210       .  T
C359        C360   1.403       .  A
C359        C364   1.402       .  A
C359        C367   1.446       .  S
C360        C361   1.403       .  A
C360        H369   1.082       .  S
C361        C362   1.403       .  A
C361        H370   1.084       .  S
C362        C363   1.402       .  A
C362        C365   1.446       .  S
C363        C364   1.400       .  A
C363        H371   1.082       .  S
C364        H372   1.084       .  S
C365        C366   1.210       .  T
C367        C368   1.209       .  T
C373        C374   1.403       .  A
C373        C378   1.402       .  A
C373        C381   1.446       .  S
C374        C375   1.402       .  A
C374        H383   1.083       .  S
C375        C376   1.403       .  A
C375        H384   1.084       .  S
C376        C377   1.403       .  A
C376        C379   1.447       .  S
C377        C378   1.401       .  A
C377        H385   1.083       .  S
C378        H386   1.084       .  S
C379        C380   1.211   1_545  T
C381        C382   1.210       .  T
C387        C388   1.401       .  A
C387        C392   1.402       .  A
C387        C395   1.443       .  S
C388        C389   1.399       .  A
C388        H397   1.082       .  S
C389        C390   1.402       .  A
C389        H398   1.085       .  S
C390        C391   1.403       .  A
C390        C393   1.444       .  S
C391        C392   1.402       .  A
C391        H399   1.082       .  S
C392        H400   1.084       .  S
C393        C394   1.209   1_545  T
C395        C396   1.208       .  T
C401        C402   1.402       .  A
C401        C406   1.402       .  A
C401        C409   1.444       .  S
C402        C403   1.402       .  A
C402        H411   1.084       .  S
C403        C404   1.403       .  A
C403        H412   1.082       .  S
C404        C405   1.402       .  A
C404        C407   1.445       .  S
C405        C406   1.400       .  A
C405        H413   1.084       .  S
C406        H414   1.083       .  S
C407        C408   1.209       .  T
C409        C410   1.209       .  T
C415        C416   1.403       .  A
C415        C420   1.402       .  A
C415        C423   1.448       .  S
C416        C417   1.402       .  A
C416        H425   1.084       .  S
C417        C418   1.402       .  A
C417        H426   1.083       .  S
C418        C419   1.403       .  A
C418        C421   1.447       .  S
C419        C420   1.402       .  A
C419        H427   1.084       .  S
C420        H428   1.083       .  S
C421        C422   1.210       .  T
C423        C424   1.211       .  T
C429        C430   1.403       .  A
C429        C434   1.402       .  A
C429        C437   1.447       .  S
C430        C431   1.403       .  A
C430        H439   1.084       .  S
C431        C432   1.403       .  A
C431        H440   1.082       .  S
C432        C433   1.402       .  A
C432        C435   1.447       .  S
C433        C434   1.401       .  A
C433        H441   1.084       .  S
C434        H442   1.082       .  S
C435        C436   1.210       .  T
C437        C438   1.210       .  T
C443        C444   1.402       .  A
C443        C448   1.403       .  A
C443        C451   1.445       .  S
C444        C445   1.400       .  A
C444        H453   1.083       .  S
C445        C446   1.402       .  A
C445        H454   1.084       .  S
C446        C447   1.403       .  A
C446        C449   1.446       .  S
C447        C448   1.403       .  A
C447        H455   1.082       .  S
C448        H456   1.084       .  S
C449        C450   1.209       .  T
C451        C452   1.209       .  T
C457        C458   1.402       .  A
C457        C462   1.403       .  A
C457        C465   1.447       .  S
C458        C459   1.401       .  A
C458        H467   1.084       .  S
C459        C460   1.402       .  A
C459        H468   1.083       .  S
C460        C461   1.403       .  A
C460        C463   1.446       .  S
C461        C462   1.403       .  A
C461        H469   1.084       .  S
C462        H470   1.083       .  S
C463        C464   1.210       .  T
C465        C466   1.210       .  T
C471        C472   1.403       .  A
C471        C476   1.402       .  A
C471        C479   1.446       .  S
C472        C473   1.402       .  A
C472        H481   1.083       .  S
C473        C474   1.402       .  A
C473        H482   1.084       .  S
C474        C475   1.403       .  A
C474        C477   1.446       .  S
C475        C476   1.402       .  A
C475        H483   1.083       .  S
C476        H484   1.084       .  S
C477        C478   1.210       .  T
C479        C480   1.210       .  T
