geometry optimzed in LAMMPS
_audit_creation_date              2020-11-30 
_audit_creation_method            'lammps2cif' 
_symmetry_space_group_name_H-M    'P1' 
_symmetry_Int_Tables_number       1 
_symmetry_cell_setting            triclinic 
loop_ 
_symmetry_equiv_pos_as_xyz 
  x,y,z 
_cell_length_a                    33.67981306 
_cell_length_b                    33.89899315413637 
_cell_length_c                    89.73672076195047 
_cell_angle_alpha                 89.7631174735897 
_cell_angle_beta                  90.20469452734044 
_cell_angle_gamma                 120.1958554932149 
loop_ 
_atom_site_label 
_atom_site_type_symbol 
_atom_site_fract_x 
_atom_site_fract_y 
_atom_site_fract_z 
_atom_site_charge 
C1          C  0.18291621  0.94640741  0.11043328     0.03200
C2          C  0.19144730  0.98537554  0.11850985    -0.13000
C3          C  0.20356341  0.98946371  0.13363765     0.00700
C4          C  0.20756995  0.95458403  0.14057445    -0.11500
C5          C  0.19884853  0.91574036  0.13266260     0.03200
C6          C  0.18650943  0.91148643  0.11761062    -0.10900
H7          H  0.18649486  0.01137999  0.11321663     0.08800
H8          H  0.21725833  0.95746042  0.15222933     0.06300
H9          H  0.17912326  0.88089059  0.11157404     0.06100
C10         C  0.32867938  0.29758242  0.22337127     0.03200
C11         C  0.32363943  0.33442214  0.21872559    -0.13000
C12         C  0.30230697  0.33282561  0.20506926     0.00700
C13         C  0.28544752  0.29366062  0.19617248    -0.11500
C14         C  0.28915371  0.25618206  0.20088549     0.03200
C15         C  0.31044673  0.25824190  0.21452524    -0.10900
H16         H  0.33663015  0.36444615  0.22569218     0.08800
H17         H  0.27018685  0.29269257  0.18542805     0.06300
H18         H  0.31288061  0.22906996  0.21824613     0.06100
C19         C  0.92694905  0.26624327  0.10211806     0.03200
C20         C  0.96294531  0.30445317  0.10919479    -0.13000
C21         C  0.95541682  0.31907361  0.12294310     0.00700
C22         C  0.91230934  0.29536669  0.12970406    -0.11500
C23         C  0.87665653  0.25678602  0.12286698     0.03200
C24         C  0.88374138  0.24271348  0.10902046    -0.10900
H25         H  0.99683641  0.32207180  0.10421877     0.08800
H26         H  0.90713113  0.30563575  0.14062073     0.06300
H27         H  0.85651370  0.21155070  0.10413412     0.06100
C28         C  0.57052157  0.05969794  0.21245560     0.03200
C29         C  0.53438812  0.01646303  0.20846852    -0.13000
C30         C  0.53278786  0.99865628  0.19428342     0.00700
C31         C  0.56672984  0.02506032  0.18381899    -0.11500
C32         C  0.60299412  0.06844751  0.18761800     0.03200
C33         C  0.60507496  0.08529170  0.20202664    -0.10900
H34         H  0.50793719  0.99616124  0.21653501     0.08800
H35         H  0.56503657  0.01170893  0.17273405     0.06300
H36         H  0.63425959  0.11777947  0.20524252     0.06100
C37         C  0.85997297  0.59422211  0.23576403     0.03200
C38         C  0.85571277  0.63121171  0.23087080    -0.13000
C39         C  0.88411356  0.66009676  0.21949978     0.00700
C40         C  0.91821639  0.65270558  0.21353095    -0.11500
C41         C  0.92115962  0.61432844  0.21768439     0.03200
C42         C  0.89190484  0.58532917  0.22885317    -0.10900
H43         H  0.82944273  0.63669279  0.23565675     0.08800
H44         H  0.94154178  0.67626467  0.20526876     0.06300
H45         H  0.89352171  0.55535991  0.23211577     0.06100
C46         C  0.66801232  0.74500514  0.13772387     0.03200
C47         C  0.70316552  0.75287872  0.14776627    -0.13000
C48         C  0.69550768  0.75045441  0.16319831     0.00700
C49         C  0.65199044  0.73970350  0.16847232    -0.11500
C50         C  0.61636336  0.72993471  0.15845332     0.03200
C51         C  0.62480025  0.73386914  0.14311872    -0.10900
H52         H  0.73613115  0.75986421  0.14350334     0.08800
H53         H  0.64511044  0.73659012  0.18033749     0.06300
H54         H  0.59729514  0.72697983  0.13536389     0.06100
C55         C  0.23699224  0.66647525  0.17652857     0.02300
C56         C  0.20037906  0.62138886  0.17710616     0.02300
C57         C  0.20916149  0.58513953  0.17622880     0.02300
C58         C  0.25444696  0.59370661  0.17751315     0.02300
C59         C  0.29117463  0.63909621  0.17818031     0.02300
C60         C  0.28230275  0.67549795  0.17751148     0.02300
O61         O  0.63383130  0.26784051  0.36775526    -0.78500
C62         C  0.57544288  0.35276915  0.36886968     0.82600
O63         O  0.48015913  0.18013725  0.34537331    -0.79600
O64         O  0.52978974  0.32752775  0.32141260    -0.81100
O65         O  0.67252585  0.33812305  0.31868022    -0.80900
O66         O  0.68008214  0.28141139  0.34843695    -0.79500
Zn67       Zn  0.57728503  0.26631034  0.36050771     1.55700
O68         O  0.64103094  0.38057527  0.32371170    -0.80900
Cd69       Cd  0.63707972  0.28025668  0.33150423     1.59700
Cd70       Cd  0.52503680  0.22718436  0.33002285     1.59600
O71         O  0.61988430  0.22597644  0.31731402    -0.80900
O72         O  0.58063102  0.27789354  0.33956631    -1.91400
Cd73       Cd  0.58269347  0.33716793  0.33565706     1.59900
O74         O  0.54386003  0.19294404  0.31547822    -0.80800
O75         O  0.58011520  0.36763925  0.35551424    -0.79500
C76         C  0.48716379  0.17603731  0.35910164     0.83100
C77         C  0.67163418  0.27474805  0.36234453     0.82700
O78         O  0.57302714  0.31483686  0.37176357    -0.78400
C79         C  0.67074733  0.37449376  0.31693516     0.83500
O80         O  0.52332399  0.20558122  0.36578552    -0.78500
C81         C  0.58168557  0.19602738  0.31167457     0.83700
C82         C  0.49843737  0.29241477  0.31474704     0.84000
O83         O  0.49227728  0.25268469  0.31724143    -0.81000
C84         C  0.51570976  0.88993780  0.56229408     0.03200
C85         C  0.55861177  0.90105878  0.55635562    -0.13000
C86         C  0.56973365  0.91629319  0.54161741     0.00700
C87         C  0.53888938  0.92267156  0.53297859    -0.11500
C88         C  0.49612887  0.91217905  0.53873845     0.03200
C89         C  0.48422649  0.89478613  0.55326553    -0.10900
H90         H  0.58298283  0.89663245  0.56303000     0.08800
H91         H  0.54769400  0.93458608  0.52158148     0.06300
H92         H  0.44996406  0.88378631  0.55732659     0.06100
C93         C  0.29686480  0.00749301  0.44452741     0.03200
C94         C  0.32188200  0.99562984  0.45425682    -0.13000
C95         C  0.30816702  0.98414595  0.46912141     0.00700
C96         C  0.26837341  0.98310822  0.47408326    -0.11500
C97         C  0.24258468  0.99386776  0.46441259     0.03200
C98         C  0.25701949  0.00652432  0.44965212    -0.10900
H99         H  0.35240186  0.99595596  0.45029018     0.08800
H100        H  0.25741610  0.97407061  0.48555563     0.06300
H101        H  0.23700839  0.01486004  0.44214594     0.06100
C102        C  0.22884178  0.30811437  0.57293879     0.03200
C103        C  0.19278641  0.27015994  0.56578386    -0.13000
C104        C  0.20009348  0.25523957  0.55201487     0.00700
C105        C  0.24395010  0.27774610  0.54564858    -0.11500
C106        C  0.28030568  0.31540574  0.55271517     0.03200
C107        C  0.27266001  0.33012634  0.56643585    -0.10900
H108        H  0.15885947  0.25301763  0.57073440     0.08800
H109        H  0.24903550  0.26766776  0.53469474     0.06300
H110        H  0.30031532  0.36023981  0.57167766     0.06100
C111        C  0.58931628  0.51998300  0.46247117     0.03200
C112        C  0.55329161  0.49141314  0.47210210    -0.13000
C113        C  0.54958895  0.50633358  0.48630251     0.00700
C114        C  0.58304166  0.54993487  0.49106007    -0.11500
C115        C  0.61980620  0.57843674  0.48178052     0.03200
C116        C  0.62282520  0.56357020  0.46744915    -0.10900
H117        H  0.52806865  0.45729553  0.46853527     0.08800
H118        H  0.58033652  0.56194939  0.50197934     0.06300
H119        H  0.65044149  0.58634901  0.46010354     0.06100
C120        C  0.92887084  0.64880987  0.55001270     0.03200
C121        C  0.91587566  0.60921142  0.54162016    -0.13000
C122        C  0.92150995  0.57386266  0.54746130     0.00700
C123        C  0.93841174  0.57743398  0.56197864    -0.11500
C124        C  0.95108053  0.61647603  0.57054848     0.03200
C125        C  0.94608845  0.65203023  0.56452897    -0.10900
H126        H  0.90444610  0.60729836  0.53020080     0.08800
H127        H  0.94458041  0.55100428  0.56623803     0.06300
H128        H  0.95704633  0.68282028  0.57096003     0.06100
C129        C  0.87284243  0.31010329  0.44900669     0.03200
C130        C  0.88493838  0.34425142  0.45978623    -0.13000
C131        C  0.89892163  0.33960612  0.47413465     0.00700
C132        C  0.90135013  0.30039862  0.47759937    -0.11500
C133        C  0.88920260  0.26596699  0.46696726     0.03200
C134        C  0.87510922  0.27096552  0.45272122    -0.10900
H135        H  0.88149372  0.37362853  0.45719165     0.08800
H136        H  0.91127835  0.29595629  0.48870541     0.06300
H137        H  0.86380349  0.24329907  0.44480040     0.06100
C138        C  0.90690382  0.90818055  0.50343917     0.02300
C139        C  0.86202153  0.90108811  0.50266870     0.02300
C140        C  0.85542268  0.93885255  0.50105591     0.02300
C141        C  0.89337161  0.98315187  0.49935623     0.02300
C142        C  0.93801942  0.99012318  0.50054425     0.02300
C143        C  0.94452407  0.95238268  0.50153914     0.02300
C144        C  0.49918609  0.56335944  0.81567541     0.03200
C145        C  0.50826686  0.59912340  0.82542378    -0.13000
C146        C  0.50679287  0.63747471  0.82028297     0.00700
C147        C  0.49694593  0.64025929  0.80523123    -0.11500
C148        C  0.48792614  0.60462162  0.79543643     0.03200
C149        C  0.48923973  0.56636399  0.80066365    -0.10900
H150        H  0.51592642  0.59686310  0.83703506     0.08800
H151        H  0.49471530  0.66933666  0.80126578     0.06300
H152        H  0.48184246  0.53864897  0.79308965     0.06100
C153        C  0.57925730  0.93490730  0.91134877     0.03200
C154        C  0.56743187  0.89557615  0.90296664    -0.13000
C155        C  0.54996933  0.89081353  0.88848412     0.00700
C156        C  0.54295176  0.92492973  0.88248839    -0.11500
C157        C  0.55488949  0.96436415  0.89066271     0.03200
C158        C  0.57187646  0.96885307  0.90520601    -0.10900
H159        H  0.57437583  0.86979256  0.90734079     0.08800
H160        H  0.53181227  0.92253913  0.87100605     0.06300
H161        H  0.58162989  0.99985909  0.91135905     0.06100
C162        C  0.24035027  0.84126944  0.79725273     0.03200
C163        C  0.20132811  0.81240205  0.80569571    -0.13000
C164        C  0.19593186  0.82523187  0.82004804     0.00700
C165        C  0.23014909  0.86646119  0.82604220    -0.11500
C166        C  0.26893054  0.89571481  0.81768959     0.03200
C167        C  0.27398962  0.88309855  0.80323562    -0.10900
H168        H  0.17524156  0.78010490  0.80109100     0.08800
H169        H  0.22624001  0.87617100  0.83720143     0.06300
H170        H  0.30401525  0.90563799  0.79668785     0.06100
C171        C  0.86504172  0.64169521  0.90371011     0.03200
C172        C  0.90731717  0.66583507  0.89626728    -0.13000
C173        C  0.91444784  0.64915382  0.88288833     0.00700
C174        C  0.87905414  0.60895274  0.87674158    -0.11500
C175        C  0.83664448  0.58483240  0.88395418     0.03200
C176        C  0.83042522  0.60039385  0.89771629    -0.10900
H177        H  0.93419894  0.69810450  0.90063621     0.08800
H178        H  0.88399693  0.59754905  0.86599529     0.06300
H179        H  0.79811805  0.58098134  0.90356932     0.06100
C180        C  0.10608046  0.10469065  0.87633017     0.03200
C181        C  0.08044682  0.11797621  0.86739965    -0.13000
C182        C  0.09764793  0.13962440  0.85365113     0.00700
C183        C  0.14035323  0.14717050  0.84877543    -0.11500
C184        C  0.16691362  0.13542424  0.85773171     0.03200
C185        C  0.14947753  0.11372620  0.87147165    -0.10900
H186        H  0.04844733  0.11392492  0.87157460     0.08800
H187        H  0.15400826  0.16421550  0.83820802     0.06300
H188        H  0.17042307  0.10576090  0.87866788     0.06100
C189        C  0.93801045  0.32344762  0.77565412     0.03200
C190        C  0.90012172  0.32293797  0.78228857    -0.13000
C191        C  0.88312203  0.30061442  0.79596613     0.00700
C192        C  0.90450672  0.27922506  0.80301206    -0.11500
C193        C  0.94270067  0.28014100  0.79653284     0.03200
C194        C  0.95884335  0.30157996  0.78275410    -0.10900
H195        H  0.88402396  0.33990329  0.77682268     0.08800
H196        H  0.89176469  0.26232500  0.81365467     0.06300
H197        H  0.98922969  0.30340698  0.77795500     0.06100
C198        C  0.53545292  0.29418974  0.83696681     0.02300
C199        C  0.49971174  0.24859349  0.83824708     0.02300
C200        C  0.51025378  0.21346982  0.83956299     0.02300
C201        C  0.55619508  0.22371700  0.83901533     0.02300
C202        C  0.59122801  0.26862302  0.83627145     0.02300
C203        C  0.58148655  0.30429313  0.83671992     0.02300
O204        O  0.95539762  0.94399624  0.03543629    -0.78500
C205        C  0.91244263  0.04012848  0.02942529     0.82600
O206        O  0.79049891  0.85259692  0.02587671    -0.79600
O207        O  0.83504138  0.97868118  0.98923813    -0.81100
O208        O  0.96471445  0.96024966  0.98288741    -0.80900
O209        O  0.97537277  0.91864273  0.01564688    -0.79500
Zn210      Zn  0.89799798  0.94418372  0.02992204     1.55700
O211        O  0.94379301  0.01297545  0.98297516    -0.80900
Cd212      Cd  0.92876363  0.91644182  0.00017221     1.59700
Cd213      Cd  0.82102702  0.88322148  0.00589018     1.59600
O214        O  0.89350892  0.85249854  0.99078411    -0.80900
O215        O  0.88562105  0.93386310  0.00903507    -1.91400
Cd216      Cd  0.89493727  0.99130479  0.99960303     1.59900
O217        O  0.81992537  0.83432974  0.99176301    -0.80800
O218        O  0.91195348  0.04240390  0.01524745    -0.79500
C219        C  0.80660757  0.86217956  0.03906664     0.83100
C220        C  0.98155554  0.93218989  0.02910922     0.82700
O221        O  0.90587740  0.00417081  0.03610839    -0.78400
C222        C  0.96683024  0.99606908  0.97747594     0.83500
O223        O  0.84666346  0.89547223  0.04173162    -0.78500
C224        C  0.85139948  0.82668161  0.98739768     0.83700
C225        C  0.79419886  0.94484312  0.98900262     0.84000
O226        O  0.78252415  0.90733810  0.99565761    -0.81000
O227        O  0.24139120  0.55647495  0.64634937    -0.78500
C228        C  0.16551750  0.62520139  0.64997570     0.82600
O229        O  0.35340049  0.70957150  0.66344167    -0.79600
O230        O  0.22213729  0.68060328  0.69514220    -0.81100
O231        O  0.19210142  0.52827761  0.69636679    -0.80900
O232        O  0.24222496  0.51721195  0.66602535    -0.79500
Zn233      Zn  0.25109201  0.61631480  0.65346758     1.55700
O234        O  0.15723841  0.56917640  0.69458060    -0.80900
Cd235      Cd  0.24938848  0.56213637  0.68296734     1.59700
Cd236      Cd  0.31226714  0.67345697  0.68152787     1.59600
O237        O  0.30604341  0.57740611  0.69622014    -0.80900
O238        O  0.25324746  0.61913702  0.67478056    -1.91400
Cd239      Cd  0.19967216  0.62454369  0.68152812     1.59900
O240        O  0.34876278  0.65307018  0.69504324    -0.80800
O241        O  0.16034399  0.62733295  0.66396559    -0.79500
C242        C  0.34660063  0.70008520  0.64958311     0.83100
C243        C  0.23838109  0.52059072  0.65200482     0.82700
O244        O  0.19905201  0.62198765  0.64498227    -0.78400
C245        C  0.15909426  0.53493680  0.69958719     0.83500
O246        O  0.30961837  0.66585891  0.64493760    -0.78500
C247        C  0.34149251  0.61478918  0.70008615     0.83700
C248        C  0.26137204  0.71185010  0.69966204     0.84000
O249        O  0.29858996  0.71476796  0.69505214    -0.81000
C250        C  0.84246850  0.29861763  0.80287466    -0.19800
C251        C  0.84065789  0.33846505  0.80585305     0.36400
C252        C  0.80096102  0.33482009  0.81219052    -0.25800
C253        C  0.76317527  0.29193535  0.81555080     0.02800
C254        C  0.76518346  0.25206446  0.81287063     0.27600
C255        C  0.80495852  0.25581951  0.80658195    -0.24900
N256        N  0.87921780  0.38256655  0.80262953    -0.82300
H257        H  0.79929226  0.36543026  0.81426697     0.13400
C258        C  0.72046352  0.28866781  0.82101432     0.02800
N259        N  0.72653522  0.20800480  0.81638796    -0.80900
H260        H  0.80648849  0.22522805  0.80432391     0.18300
C261        C  0.68222143  0.26987879  0.81156341    -0.25700
C262        C  0.64029795  0.26381499  0.81637921     0.36300
C263        C  0.63629226  0.27679499  0.83099317    -0.19800
C264        C  0.67488044  0.29673158  0.84037420    -0.25000
C265        C  0.71716408  0.30265068  0.83550174     0.27700
H266        H  0.68498278  0.25954343  0.80037634     0.13400
N267        N  0.60245716  0.24499760  0.80612228    -0.82300
H268        H  0.67185530  0.30713809  0.85150478     0.18300
N269        N  0.75648696  0.32207820  0.84520272    -0.80900
H270        H  0.59030090  0.26773032  0.80496573     0.33900
H271        H  0.57604748  0.21435565  0.81045723     0.38400
H272        H  0.74830415  0.33073396  0.85545233     0.33900
H273        H  0.76489232  0.29682592  0.84738691     0.30600
H274        H  0.73345384  0.18211309  0.81363131     0.33900
H275        H  0.72191625  0.20644489  0.82793366     0.30600
H276        H  0.86837610  0.39921639  0.79524955     0.38400
H277        H  0.88948491  0.40124111  0.81253944     0.33900
C278        C  0.96020393  0.35178580  0.76240606    -0.19800
C279        C  0.97106441  0.33381434  0.74994419     0.36400
C280        C  0.00118132  0.36379387  0.73912200    -0.25800
C281        C  0.02011693  0.41105454  0.74057230     0.02800
C282        C  0.00706400  0.42879283  0.75254577     0.27600
C283        C  0.97671200  0.39880263  0.76330009    -0.24900
N284        N  0.95238458  0.28540081  0.74858608    -0.82300
H285        H  0.01091844  0.35050378  0.72972950     0.13400
C286        C  0.05535165  0.44178399  0.72987758     0.02800
N287        N  0.02630279  0.47724843  0.75406719    -0.80900
H288        H  0.96836223  0.41240518  0.77293612     0.18300
C289        C  0.04551588  0.46822785  0.72022113    -0.25700
C290        C  0.07837583  0.49826655  0.71000484     0.36300
C291        C  0.12232291  0.50229708  0.70965544    -0.19800
C292        C  0.13179653  0.47534381  0.71934798    -0.25000
C293        C  0.09879657  0.44529148  0.72951665     0.27700
H294        H  0.01186234  0.46504463  0.72060013     0.13400
N295        N  0.06694968  0.52411671  0.69990560    -0.82300
H296        H  0.16540522  0.47840901  0.71923286     0.18300
N297        N  0.10932711  0.41878106  0.73963244    -0.80900
H298        H  0.03361282  0.51768565  0.70185111     0.33900
H299        H  0.06700490  0.51253604  0.68912849     0.38400
H300        H  0.14275451  0.42521203  0.73789536     0.33900
H301        H  0.10848694  0.42970373  0.75044708     0.30600
H302        H  0.01301017  0.48462043  0.76348053     0.33900
H303        H  0.06159442  0.49167877  0.75589726     0.30600
H304        H  0.91673902  0.27035284  0.74753503     0.38400
H305        H  0.96403069  0.27784479  0.73882090     0.33900
C306        C  0.21508327  0.15161733  0.85349305    -0.19800
C307        C  0.23310286  0.12203964  0.85303535     0.36400
C308        C  0.27972941  0.13996538  0.84958497    -0.25800
C309        C  0.30817064  0.18660841  0.84653503     0.02800
C310        C  0.29010152  0.21601084  0.84672699     0.27600
C311        C  0.24359192  0.19815627  0.85013007    -0.24900
N312        N  0.20407808  0.07416327  0.85606680    -0.82300
H313        H  0.29420563  0.11774025  0.84944793     0.13400
C314        C  0.35770567  0.20488941  0.84441244     0.02800
N315        N  0.31933605  0.26395802  0.84380984    -0.80900
H316        H  0.22975737  0.22089632  0.85059611     0.18300
C317        C  0.37697540  0.21801526  0.83015418    -0.25700
C318        C  0.42385608  0.23398408  0.82793581     0.36300
C319        C  0.45155165  0.23732627  0.84016360    -0.19800
C320        C  0.43249869  0.22561785  0.85446059    -0.25000
C321        C  0.38567441  0.20929599  0.85671256     0.27700
H322        H  0.35539266  0.21489620  0.82072605     0.13400
N323        N  0.44299685  0.24552821  0.81327222    -0.82300
H324        H  0.45418628  0.22836743  0.86381283     0.18300
N325        N  0.36614162  0.19660697  0.87137945    -0.80900
H326        H  0.42511811  0.21673913  0.80652122     0.33900
H327        H  0.43731639  0.27110316  0.80908886     0.38400
H328        H  0.39130830  0.20136677  0.87917446     0.33900
H329        H  0.35446695  0.21883918  0.87433882     0.30600
H330        H  0.30058346  0.28084536  0.84433677     0.33900
H331        H  0.34381437  0.27745123  0.85233992     0.30600
H332        H  0.17900079  0.06063579  0.84772790     0.38400
H333        H  0.22279244  0.05725716  0.85530375     0.33900
C334        C  0.07417876  0.15936841  0.84504793    -0.19800
C335        C  0.02706726  0.13370167  0.84137662     0.36400
C336        C  0.00710325  0.15429626  0.83295807    -0.25800
C337        C  0.03340626  0.19971973  0.82817274     0.02800
C338        C  0.08030707  0.22536785  0.83183123     0.27600
C339        C  0.10015826  0.20503900  0.84032472    -0.24900
N340        N  0.99992029  0.08692323  0.84606284    -0.82300
H341        H  0.97091809  0.13502095  0.83013322     0.13400
C342        C  0.01112052  0.22062958  0.81971439     0.02800
N343        N  0.10747576  0.27189316  0.82687157    -0.80900
H344        H  0.13616881  0.22499878  0.84331624     0.18300
C345        C  0.00631065  0.25516815  0.82645188    -0.25700
C346        C  0.98464076  0.27536817  0.81892211     0.36300
C347        C  0.96705851  0.26047143  0.80449296    -0.19800
C348        C  0.97303959  0.22679684  0.79756204    -0.25000
C349        C  0.99511961  0.20670575  0.80506636     0.27700
H350        H  0.01936329  0.26638260  0.83762588     0.13400
N351        N  0.98130637  0.31163173  0.82581785    -0.82300
H352        H  0.96005621  0.21593490  0.78636365     0.18300
N353        N  0.00151133  0.17241980  0.79792939    -0.80900
H354        H  0.01455481  0.33791039  0.82829835     0.33900
H355        H  0.96351718  0.29937798  0.83585278     0.38400
H356        H  0.98769336  0.16604590  0.78716447     0.33900
H357        H  0.03685242  0.18561134  0.79674909     0.30600
H358        H  0.14137383  0.28608089  0.83059594     0.33900
H359        H  0.10859505  0.27157513  0.81522808     0.30600
H360        H  0.01287170  0.06839412  0.84075347     0.38400
H361        H  0.96585929  0.07312027  0.84251755     0.33900
C362        C  0.99448787  0.01701816  0.96384175    -0.19800
C363        C  0.02941165  0.00811543  0.95922831     0.36400
C364        C  0.05009051  0.02374241  0.94521810    -0.25800
C365        C  0.03668374  0.04800094  0.93581356     0.02800
C366        C  0.00349292  0.05869927  0.94059410     0.27600
C367        C  0.98281727  0.04325866  0.95457937    -0.24900
N368        N  0.04340000  0.98285600  0.96865065    -0.82300
H369        H  0.07608785  0.01619130  0.94145458     0.13400
C370        C  0.05636428  0.06070214  0.92070951     0.02800
N371        N  0.99024980  0.08431106  0.93104452    -0.80900
H372        H  0.95619451  0.05033327  0.95798390     0.18300
C373        C  0.02918793  0.03634734  0.90848105    -0.25700
C374        C  0.04560623  0.04902844  0.89390449     0.36300
C375        C  0.08979884  0.08677736  0.89150721    -0.19800
C376        C  0.11760604  0.11009417  0.90379681    -0.25000
C377        C  0.10114928  0.09753097  0.91842218     0.27700
H378        H  0.99489211  0.00769414  0.91027583     0.13400
N379        N  0.01746698  0.02348610  0.88155117    -0.82300
H380        H  0.15150977  0.13929879  0.90195167     0.18300
N381        N  0.12917613  0.12254274  0.93093539    -0.80900
H382        H  0.00943187  0.98957696  0.88281121     0.33900
H383        H  0.98683951  0.02422545  0.88203778     0.38400
H384        H  0.16131501  0.14856471  0.92733378     0.33900
H385        H  0.11328448  0.13848790  0.93615346     0.30600
H386        H  0.96495321  0.08886855  0.93612852     0.33900
H387        H  0.01896374  0.11682969  0.92967485     0.30600
H388        H  0.05839940  0.00240368  0.97819903     0.38400
H389        H  0.06881720  0.97870255  0.96347221     0.33900
C390        C  0.79833291  0.54481570  0.87661865    -0.19800
C391        C  0.75479557  0.54092273  0.87499288     0.36400
C392        C  0.71943583  0.50280638  0.86782795    -0.25800
C393        C  0.72721691  0.46914571  0.86194343     0.02800
C394        C  0.77078137  0.47340291  0.86317254     0.27600
C395        C  0.80603251  0.51112341  0.87054582    -0.24900
N396        N  0.74675002  0.57619543  0.88018589    -0.82300
H397        H  0.68585479  0.49958406  0.86674664     0.13400
C398        C  0.68886274  0.42858083  0.85509843     0.02800
N399        N  0.77891997  0.43899756  0.85718080    -0.80900
H400        H  0.83941128  0.51391193  0.87163479     0.18300
C401        C  0.68919669  0.42128856  0.83975228    -0.25700
C402        C  0.65419564  0.38165691  0.83309454     0.36300
C403        C  0.61776325  0.34931464  0.84207300    -0.19800
C404        C  0.61739374  0.35732876  0.85739068    -0.25000
C405        C  0.65278014  0.39647960  0.86397286     0.27700
H406        H  0.71728414  0.44620806  0.83297161     0.13400
N407        N  0.65717275  0.37539904  0.81740569    -0.82300
H408        H  0.59011872  0.33213689  0.86437673     0.18300
N409        N  0.65293077  0.40289286  0.87975081    -0.80900
H410        H  0.62951761  0.34467396  0.81376199     0.33900
H411        H  0.68667979  0.37322908  0.81563627     0.38400
H412        H  0.62269514  0.40261945  0.88255463     0.33900
H413        H  0.65248588  0.37512005  0.88503801     0.30600
H414        H  0.80566554  0.45454084  0.84945916     0.33900
H415        H  0.78979229  0.42600925  0.86586745     0.30600
H416        H  0.71962384  0.56172252  0.88780020     0.38400
H417        H  0.73648748  0.58838024  0.87110231     0.33900
C418        C  0.85605245  0.66119160  0.91717224    -0.19800
C419        C  0.81633000  0.66509706  0.91826076     0.36400
C420        C  0.80957613  0.68477613  0.93100898    -0.25800
C421        C  0.84328555  0.70404401  0.94216981     0.02800
C422        C  0.88320678  0.70034678  0.94103882     0.27600
C423        C  0.88861582  0.67809985  0.92870388    -0.24900
N424        N  0.78401032  0.65097263  0.90614202    -0.82300
H425        H  0.77865983  0.68692649  0.93193392     0.13400
C426        C  0.83810478  0.73115068  0.95425707     0.02800
N427        N  0.91880648  0.72043866  0.95213225    -0.80900
H428        H  0.91907421  0.67509133  0.92785586     0.18300
C429        C  0.84599493  0.72402242  0.96917029    -0.25700
C430        C  0.84822088  0.75358090  0.98050359     0.36300
C431        C  0.84001385  0.78929754  0.97694765    -0.19800
C432        C  0.82820397  0.79411827  0.96237344    -0.25000
C433        C  0.82827642  0.76622648  0.95088571     0.27700
H434        H  0.85227154  0.69645309  0.97187344     0.13400
N435        N  0.86012819  0.74846121  0.99549480    -0.82300
H436        H  0.82250121  0.82212850  0.95973976     0.18300
N437        N  0.82093562  0.77512255  0.93573539    -0.80900
H438        H  0.86566030  0.72079474  0.99623456     0.33900
H439        H  0.83187197  0.74061415  0.00225505     0.38400
H440        H  0.81392813  0.80184599  0.93522746     0.33900
H441        H  0.85161721  0.78607153  0.92992919     0.30600
H442        H  0.94554060  0.71428104  0.94969693     0.33900
H443        H  0.93273597  0.75580854  0.95164503     0.30600
H444        H  0.80102489  0.67178260  0.89697925     0.38400
H445        H  0.75693203  0.65651094  0.90867672     0.33900
C446        C  0.30389253  0.93958317  0.82414659    -0.19800
C447        C  0.29180864  0.97098808  0.82979888     0.36400
C448        C  0.32636062  0.01315303  0.83519459    -0.25800
C449        C  0.37239469  0.02450763  0.83482414     0.02800
C450        C  0.38433701  0.99240387  0.82996597     0.27600
C451        C  0.34978675  0.95001094  0.82466174    -0.24900
N452        N  0.24488645  0.96078327  0.82942669    -0.82300
H453        H  0.31779916  0.03844982  0.83881444     0.13400
C454        C  0.40756407  0.07274525  0.83643683     0.02800
N455        N  0.43153994  0.00359099  0.83003176    -0.80900
H456        H  0.35870121  0.92537735  0.82061775     0.18300
C457        C  0.42627728  0.09078005  0.85044550    -0.25700
C458        C  0.45895794  0.13728111  0.85189962     0.36300
C459        C  0.47296715  0.16537726  0.83915886    -0.19800
C460        C  0.45341642  0.14738033  0.82528225    -0.25000
C461        C  0.42065711  0.10124134  0.82378465     0.27700
H462        H  0.41547120  0.06883950  0.86018531     0.13400
N463        N  0.47787083  0.15590729  0.86620625    -0.82300
H464        H  0.46453978  0.16937339  0.81555115     0.18300
N465        N  0.40008857  0.08312570  0.80951123    -0.80900
H466        H  0.45079317  0.15024670  0.87323473     0.33900
H467        H  0.49295508  0.13785124  0.87052509     0.38400
H468        H  0.41257620  0.10898249  0.80145195     0.33900
H469        H  0.41031044  0.06007017  0.80620286     0.30600
H470        H  0.43433313  0.97580952  0.82639425     0.33900
H471        H  0.44903029  0.02963291  0.82224203     0.30600
H472        H  0.23517630  0.95857130  0.81824876     0.38400
H473        H  0.24195867  0.98743868  0.83409069     0.33900
C474        C  0.15425295  0.79663593  0.82887390    -0.19800
C475        C  0.11041649  0.78406504  0.82324778     0.36400
C476        C  0.07180615  0.75978325  0.83232570    -0.25800
C477        C  0.07649248  0.74892937  0.84707794     0.02800
C478        C  0.12040274  0.76199204  0.85282608     0.27600
C479        C  0.15888010  0.78531491  0.84358711    -0.24900
N480        N  0.10523749  0.79753653  0.80855116    -0.82300
H481        H  0.03807609  0.74993032  0.82791829     0.13400
C482        C  0.03520459  0.72414190  0.85645414     0.02800
N483        N  0.12571650  0.75231677  0.86808510    -0.80900
H484        H  0.19275586  0.79555777  0.84794605     0.18300
C485        C  0.02446710  0.68163603  0.86243031    -0.25700
C486        C  0.98559086  0.65709019  0.87135939     0.36300
C487        C  0.95731005  0.67550081  0.87447397    -0.19800
C488        C  0.96801421  0.71803611  0.86856974    -0.25000
C489        C  0.00672603  0.74257965  0.85948766     0.27700
H490        H  0.04614108  0.66729107  0.86002349     0.13400
N491        N  0.97486109  0.61353132  0.87728366    -0.82300
H492        H  0.94557303  0.73159500  0.87082483     0.18300
N493        N  0.01718941  0.78594627  0.85330058    -0.80900
H494        H  0.00284708  0.61794705  0.88365619     0.33900
H495        H  0.97092538  0.59213741  0.86834876     0.38400
H496        H  0.99244443  0.79427651  0.85646389     0.33900
H497        H  0.04836106  0.81079306  0.85789997     0.30600
H498        H  0.16028479  0.76427072  0.87054524     0.33900
H499        H  0.11541593  0.77063389  0.87483420     0.30600
H500        H  0.08958624  0.81737192  0.80945408     0.38400
H501        H  0.08317126  0.76809541  0.80256608     0.33900
C502        C  0.24616908  0.82725782  0.78225220    -0.19800
C503        C  0.25395372  0.79053531  0.78046613     0.36400
C504        C  0.25918651  0.77757277  0.76613826    -0.25800
C505        C  0.25654345  0.80064073  0.75348248     0.02800
C506        C  0.24828585  0.83727089  0.75522922     0.27600
C507        C  0.24344206  0.85043931  0.76965884    -0.24900
N508        N  0.25700230  0.76667458  0.79322936    -0.82300
H509        H  0.26493027  0.74904369  0.76487183     0.13400
C510        C  0.26123153  0.78487858  0.73853470     0.02800
N511        N  0.24494642  0.86085914  0.74236926    -0.80900
H512        H  0.23715441  0.87855262  0.77111283     0.18300
C513        C  0.22451451  0.76882175  0.72844207    -0.25700
C514        C  0.22528223  0.74819046  0.71497597     0.36300
C515        C  0.26337194  0.74283625  0.71167152    -0.19800
C516        C  0.30148647  0.76199426  0.72132438    -0.25000
C517        C  0.30075965  0.78290786  0.73472086     0.27700
H518        H  0.19439025  0.77084452  0.73135047     0.13400
N519        N  0.18702667  0.73162385  0.70486099    -0.82300
H520        H  0.33100592  0.75845488  0.71885302     0.18300
N521        N  0.33941366  0.80094609  0.74470806    -0.80900
H522        H  0.16169640  0.73776476  0.70904833     0.33900
H523        H  0.19895445  0.75050195  0.69500327     0.38400
H524        H  0.36560567  0.79645645  0.74034409     0.33900
H525        H  0.35260002  0.83615618  0.74545885     0.30600
H526        H  0.23843775  0.88670094  0.74557057     0.33900
H527        H  0.27694260  0.87684762  0.73710194     0.30600
H528        H  0.28912800  0.76894619  0.79307959     0.38400
H529        H  0.23182174  0.73227123  0.79221230     0.33900
C530        C  0.55841330  0.00407020  0.88282111    -0.19800
C531        C  0.51923978  0.00394739  0.87726467     0.36400
C532        C  0.52490616  0.04061997  0.86840513    -0.25800
C533        C  0.56898110  0.07691983  0.86506923     0.02800
C534        C  0.60809822  0.07689181  0.87060153     0.27600
C535        C  0.60240273  0.04046624  0.87954061    -0.24900
N536        N  0.47414230  0.96670854  0.88067674    -0.82300
H537        H  0.49500054  0.04139732  0.86428763     0.13400
C538        C  0.57334427  0.11666306  0.85693278     0.02800
N539        N  0.65327859  0.11370102  0.86700242    -0.80900
H540        H  0.63233822  0.03972368  0.88364126     0.18300
C541        C  0.59099044  0.15802959  0.86455918    -0.25700
C542        C  0.58838881  0.19453154  0.85835164     0.36300
C543        C  0.56829680  0.18949022  0.84414502    -0.19800
C544        C  0.55440560  0.14944293  0.83595481    -0.25000
C545        C  0.55673026  0.11273589  0.84227902     0.27700
H546        H  0.60417108  0.16080130  0.87577677     0.13400
N547        N  0.60359947  0.23573765  0.86676315    -0.82300
H548        H  0.53947572  0.14590806  0.82499321     0.18300
N549        N  0.54139468  0.07118742  0.83409614    -0.80900
H550        H  0.61807986  0.23409974  0.87691094     0.33900
H551        H  0.57475824  0.23832946  0.86933283     0.38400
H552        H  0.53123640  0.07440763  0.82335412     0.33900
H553        H  0.56962369  0.06655900  0.83279871     0.30600
H554        H  0.67839370  0.10844666  0.87195753     0.33900
H555        H  0.65750044  0.11322194  0.85547714     0.30600
H556        H  0.46956956  0.96671448  0.89220189     0.38400
H557        H  0.44900599  0.97188740  0.87570935     0.33900
C558        C  0.76038790  0.94778391  0.97952969    -0.19800
C559        C  0.72014464  0.94474970  0.98531926     0.36400
C560        C  0.68769809  0.94481889  0.97541831    -0.25800
C561        C  0.69517469  0.94759343  0.95997804     0.02800
C562        C  0.73538322  0.95017240  0.95427274     0.27600
C563        C  0.76796127  0.95100594  0.96415320    -0.24900
N564        N  0.71268251  0.94189790  0.00113858    -0.82300
H565        H  0.65666268  0.94277562  0.97968857     0.13400
C566        C  0.66090566  0.94729222  0.94962281     0.02800
N567        N  0.74242358  0.95102021  0.93844399    -0.80900
H568        H  0.79878837  0.95264322  0.95983430     0.18300
C569        C  0.67440666  0.98502624  0.94024862    -0.25700
C570        C  0.64740279  0.98278273  0.92801093     0.36300
C571        C  0.60489360  0.94235128  0.92551995    -0.19800
C572        C  0.58974084  0.90603988  0.93573402    -0.25000
C573        C  0.61773316  0.90778442  0.94763622     0.27700
H574        H  0.70775717  0.01522604  0.94190722     0.13400
N575        N  0.66451528  0.02024477  0.91763958    -0.82300
H576        H  0.55704827  0.87520300  0.93390628     0.18300
N577        N  0.60356895  0.86889199  0.95722869    -0.80900
H578        H  0.69599197  0.04739117  0.92124734     0.33900
H579        H  0.67089789  0.00908908  0.90756521     0.38400
H580        H  0.57082533  0.84259422  0.95425327     0.33900
H581        H  0.62602287  0.85649463  0.95549838     0.30600
H582        H  0.77379927  0.95304109  0.93611084     0.33900
H583        H  0.71678509  0.91989033  0.93413341     0.30600
H584        H  0.73834972  0.97236992  0.00581596     0.38400
H585        H  0.68135655  0.93989036  0.00354507     0.33900
C586        C  0.50017770  0.52278457  0.82114261    -0.19800
C587        C  0.46186443  0.47867941  0.81943151     0.36400
C588        C  0.46509459  0.44059636  0.82367401    -0.25800
C589        C  0.50606248  0.44606913  0.82959057     0.02800
C590        C  0.54411429  0.49011888  0.83172026     0.27600
C591        C  0.54064878  0.52825391  0.82758508    -0.24900
N592        N  0.41975393  0.47256408  0.81335105    -0.82300
H593        H  0.43602629  0.40662018  0.82195123     0.13400
C594        C  0.51067091  0.40556489  0.83174668     0.02800
N595        N  0.58662132  0.49570932  0.83740422    -0.80900
H596        H  0.57007788  0.56224577  0.82885279     0.18300
C597        C  0.52560589  0.39055314  0.81966389    -0.25700
C598        C  0.53268949  0.35356991  0.82119811     0.36300
C599        C  0.52533921  0.33161525  0.83508340    -0.19800
C600        C  0.50903779  0.34570453  0.84712114    -0.25000
C601        C  0.50127105  0.38257755  0.84553315     0.27700
H602        H  0.53205731  0.40787278  0.80900402     0.13400
N603        N  0.54676492  0.33792943  0.80857419    -0.82300
H604        H  0.50292150  0.32825408  0.85773539     0.18300
N605        N  0.48349021  0.39642592  0.85771238    -0.80900
H606        H  0.57687077  0.36553894  0.80436306     0.33900
H607        H  0.52150814  0.32814640  0.80034571     0.38400
H608        H  0.47767263  0.37542356  0.86696813     0.33900
H609        H  0.50871789  0.42935212  0.86084850     0.30600
H610        H  0.61156046  0.53031068  0.83797839     0.33900
H611        H  0.58088322  0.48333921  0.84833691     0.30600
H612        H  0.41179408  0.45219966  0.80384343     0.38400
H613        H  0.39376956  0.45487806  0.82118640     0.33900
C614        C  0.51435412  0.67420467  0.83069674    -0.19800
C615        C  0.48617166  0.66517369  0.84328019     0.36400
C616        C  0.49335264  0.70102139  0.85268376    -0.25800
C617        C  0.52802721  0.74595077  0.84966130     0.02800
C618        C  0.55678208  0.75504259  0.83716772     0.27600
C619        C  0.54956986  0.71895247  0.82778854    -0.24900
N620        N  0.44942270  0.61985136  0.84629771    -0.82300
H621        H  0.47145934  0.69381259  0.86233455     0.13400
C622        C  0.53326974  0.78305589  0.85958764     0.02800
N623        N  0.59269125  0.80085945  0.83395981    -0.80900
H624        H  0.57129578  0.72568346  0.81812445     0.18300
C625        C  0.57557012  0.81084902  0.86663620    -0.25700
C626        C  0.58183158  0.84646298  0.87604681     0.36300
C627        C  0.54445501  0.85319620  0.87886311    -0.19800
C628        C  0.50222756  0.82559416  0.87176943    -0.25000
C629        C  0.49634717  0.79078486  0.86202682     0.27700
H630        H  0.60386997  0.80491429  0.86467866     0.13400
N631        N  0.62617680  0.87644606  0.88248365    -0.82300
H632        H  0.47395283  0.83155804  0.87375871     0.18300
N633        N  0.45331451  0.76364304  0.85443965    -0.80900
H634        H  0.64993264  0.86689405  0.87925312     0.33900
H635        H  0.63783867  0.90911200  0.87810640     0.38400
H636        H  0.42973420  0.77364149  0.85749200     0.33900
H637        H  0.45928630  0.77027181  0.84303229     0.30600
H638        H  0.61091993  0.80156056  0.82445955     0.33900
H639        H  0.57714359  0.82013106  0.83146728     0.30600
H640        H  0.45463251  0.61046996  0.85692224     0.38400
H641        H  0.41871607  0.62049937  0.84647152     0.33900
C642        C  0.47167154  0.60470917  0.78019754    -0.19800
C643        C  0.42447445  0.58576245  0.77748594     0.36400
C644        C  0.40895594  0.58579014  0.76301153    -0.25800
C645        C  0.43999601  0.60480974  0.75115020     0.02800
C646        C  0.48746540  0.62354951  0.75378222     0.27600
C647        C  0.50296047  0.62325954  0.76837367    -0.24900
N648        N  0.39231571  0.56693179  0.78950910    -0.82300
H649        H  0.37252257  0.57181923  0.76106654     0.13400
C650        C  0.42178395  0.60747867  0.73637298     0.02800
N651        N  0.51948214  0.64279780  0.74167016    -0.80900
H652        H  0.53931145  0.63758529  0.77055890     0.18300
C653        C  0.43099624  0.65009807  0.73104043    -0.25700
C654        C  0.40704684  0.65361783  0.71876025     0.36300
C655        C  0.37339643  0.61361322  0.71144796    -0.19800
C656        C  0.36683021  0.57110089  0.71623811    -0.25000
C657        C  0.39050079  0.56766469  0.72866549     0.27700
H658        H  0.45497036  0.68075714  0.73699821     0.13400
N659        N  0.41554079  0.69784057  0.71432611    -0.82300
H660        H  0.34175667  0.54015700  0.71067284     0.18300
N661        N  0.38176229  0.52383266  0.73385403    -0.80900
H662        H  0.45037747  0.71793024  0.71169895     0.33900
H663        H  0.40873758  0.71271643  0.72342261     0.38400
H664        H  0.35747897  0.49781624  0.72706240     0.33900
H665        H  0.41230010  0.52312213  0.73280036     0.30600
H666        H  0.55305257  0.65520447  0.74548609     0.33900
H667        H  0.51244352  0.61637692  0.73423237     0.30600
H668        H  0.37421192  0.58448073  0.79004055     0.38400
H669        H  0.36893464  0.53280084  0.78702632     0.33900
C670        C  0.88740592  0.22293149  0.47119393    -0.19800
C671        C  0.84555490  0.18429065  0.47540927     0.36400
C672        C  0.84528867  0.14457324  0.48016957    -0.25800
C673        C  0.88589617  0.14261380  0.48048068     0.02800
C674        C  0.92759002  0.18096618  0.47589361     0.27600
C675        C  0.92796309  0.22094836  0.47137277    -0.24900
N676        N  0.80371920  0.18591528  0.47508825    -0.82300
H677        H  0.81330826  0.11487863  0.48354328     0.13400
C678        C  0.88436374  0.10003470  0.48544407     0.02800
N679        N  0.96932908  0.17914716  0.47595285    -0.80900
H680        H  0.95993217  0.25073869  0.46804196     0.18300
C681        C  0.89417121  0.07521104  0.47512801    -0.25700
C682        C  0.89494563  0.03577983  0.47946386     0.36300
C683        C  0.88722075  0.02173859  0.49449982    -0.19800
C684        C  0.87606083  0.04567762  0.50478022    -0.25000
C685        C  0.87411175  0.08460204  0.50034114     0.27700
H686        H  0.90124642  0.08673544  0.46365326     0.13400
N687        N  0.90412208  0.01005841  0.46870933    -0.82300
H688        H  0.86988171  0.03456499  0.51629774     0.18300
N689        N  0.86258568  0.10898418  0.51091009    -0.80900
H690        H  0.90956423  0.02510320  0.45816028     0.33900
H691        H  0.87472287  0.97778294  0.46789348     0.38400
H692        H  0.85558397  0.09299117  0.52133423     0.33900
H693        H  0.89148769  0.14137318  0.51226203     0.30600
H694        H  0.99685976  0.21001095  0.47216446     0.33900
H695        H  0.97664731  0.17522192  0.48700977     0.30600
H696        H  0.79663613  0.18937092  0.46396061     0.38400
H697        H  0.77617120  0.15504527  0.47885426     0.33900
C698        C  0.92800142  0.68823295  0.54312071    -0.19800
C699        C  0.96809618  0.73171395  0.54235072     0.36400
C700        C  0.96590777  0.76821086  0.53571260    -0.25800
C701        C  0.92467749  0.76194398  0.52967139     0.02800
C702        C  0.88469837  0.71852514  0.53036698     0.27600
C703        C  0.88685281  0.68197998  0.53697978    -0.24900
N704        N  0.01100696  0.73837332  0.54804359    -0.82300
H705        H  0.99657987  0.80157654  0.53504817     0.13400
C706        C  0.92356759  0.80110399  0.52268706     0.02800
N707        N  0.84200722  0.71198874  0.52451555    -0.80900
H708        H  0.85618208  0.64859886  0.53755672     0.18300
C709        C  0.91166196  0.79887212  0.50756974    -0.25700
C710        C  0.90739178  0.83401100  0.50085142     0.36300
C711        C  0.91511514  0.87193376  0.50935908    -0.19800
C712        C  0.92870846  0.87502375  0.52431008    -0.25000
C713        C  0.93280193  0.83986195  0.53110759     0.27700
H714        H  0.90508309  0.76940025  0.50101668     0.13400
N715        N  0.89494210  0.83094848  0.48546583    -0.82300
H716        H  0.93467790  0.90440823  0.53081036     0.18300
N717        N  0.94509313  0.84276839  0.54659063    -0.80900
H718        H  0.91973517  0.82847444  0.47922314     0.33900
H719        H  0.86359237  0.80074746  0.48397840     0.38400
H720        H  0.95091092  0.87358505  0.55114021     0.33900
H721        H  0.91692631  0.81675977  0.55224687     0.30600
H722        H  0.81585475  0.67807097  0.52584843     0.33900
H723        H  0.83273486  0.73183087  0.53088850     0.30600
H724        H  0.02015813  0.71847940  0.54164074     0.38400
H725        H  0.03708581  0.77229277  0.54664145     0.33900
C726        C  0.91715276  0.53684523  0.53769551    -0.19800
C727        C  0.87530009  0.50581393  0.53077910     0.36400
C728        C  0.87384070  0.47238521  0.52117332    -0.25800
C729        C  0.91344615  0.46973037  0.51840176     0.02800
C730        C  0.95502226  0.50026656  0.52552707     0.27600
C731        C  0.95644389  0.53352287  0.53511031    -0.24900
N732        N  0.83468290  0.50843535  0.53353706    -0.82300
H733        H  0.84197345  0.44873520  0.51564931     0.13400
C734        C  0.91143462  0.43598910  0.50755607     0.02800
N735        N  0.99562054  0.49746642  0.52291124    -0.80900
H736        H  0.98856060  0.55751051  0.54044169     0.18300
C737        C  0.93575989  0.45157167  0.49414844    -0.25700
C738        C  0.93333557  0.42075620  0.48331332     0.36300
C739        C  0.90606568  0.37337683  0.48587172    -0.19800
C740        C  0.88278174  0.35787003  0.49951942    -0.25000
C741        C  0.88526442  0.38876225  0.51040548     0.27700
H742        H  0.95627197  0.48791605  0.49200371     0.13400
N743        N  0.95884158  0.43772381  0.46976496    -0.82300
H744        H  0.86159478  0.32153353  0.50152877     0.18300
N745        N  0.86112357  0.37249081  0.52428143    -0.80900
H746        H  0.99356500  0.45813194  0.47252024     0.33900
H747        H  0.94819235  0.45843978  0.46450877     0.38400
H748        H  0.84328298  0.33682117  0.52460502     0.33900
H749        H  0.88567164  0.38349322  0.53279288     0.30600
H750        H  0.02344928  0.52266310  0.52891302     0.33900
H751        H  0.98951147  0.46604255  0.52707710     0.30600
H752        H  0.82658277  0.50130546  0.54483133     0.38400
H753        H  0.80682052  0.48319946  0.52755792     0.33900
C754        C  0.13165804  0.62561858  0.63925021    -0.19800
C755        C  0.13446467  0.61972261  0.62373103     0.36400
C756        C  0.10206559  0.62012704  0.61401844    -0.25800
C757        C  0.06647955  0.62621294  0.61929352     0.02800
C758        C  0.06264573  0.63130297  0.63469955     0.27600
C759        C  0.09524603  0.63094989  0.64453858    -0.24900
N760        N  0.16992874  0.61302720  0.61765881    -0.82300
H761        H  0.10477146  0.61568281  0.60217751     0.13400
C762        C  0.03446406  0.62797973  0.60827948     0.02800
N763        N  0.02599601  0.63721104  0.64024567    -0.80900
H764        H  0.09226192  0.63512155  0.65636620     0.18300
C765        C  0.98833449  0.59292595  0.60789260    -0.25700
C766        C  0.95947237  0.59008685  0.59608840     0.36300
C767        C  0.97688377  0.62288953  0.58457891    -0.19800
C768        C  0.02211718  0.65949949  0.58550951    -0.25000
C769        C  0.05112869  0.66230792  0.59722949     0.27700
H770        H  0.97530449  0.56660761  0.61640060     0.13400
N771        N  0.91278509  0.55347617  0.59563969    -0.82300
H772        H  0.03559682  0.68464652  0.57663423     0.18300
N773        N  0.09801124  0.69899726  0.59771712    -0.80900
H774        H  0.89649805  0.55488803  0.60535241     0.33900
H775        H  0.91289045  0.52268547  0.59571996     0.38400
H776        H  0.10507673  0.72113708  0.58868669     0.33900
H777        H  0.10195514  0.71791902  0.60734115     0.30600
H778        H  0.02790714  0.64039369  0.65184484     0.33900
H779        H  0.03072961  0.66804775  0.63598764     0.30600
H780        H  0.15438322  0.58178110  0.61205556     0.38400
H781        H  0.18833981  0.63889532  0.60986676     0.33900
C782        C  0.65384223  0.62461591  0.48697719    -0.19800
C783        C  0.69944325  0.63634900  0.49026048     0.36400
C784        C  0.73101538  0.68113753  0.49479883    -0.25800
C785        C  0.71748934  0.71393215  0.49609646     0.02800
C786        C  0.67150006  0.70167115  0.49337534     0.27600
C787        C  0.63997088  0.65694830  0.48889069    -0.24900
N788        N  0.71343016  0.60286680  0.48882966    -0.82300
H789        H  0.76652206  0.69094542  0.49689550     0.13400
C790        C  0.75274615  0.76220039  0.49850520     0.02800
N791        N  0.65747273  0.73512089  0.49483775    -0.80900
H792        H  0.60466493  0.64743945  0.48656513     0.18300
C793        C  0.76645442  0.79176699  0.48623915    -0.25700
C794        C  0.80125308  0.83744375  0.48759085     0.36300
C795        C  0.82223329  0.85397181  0.50156754    -0.19800
C796        C  0.80780405  0.82464850  0.51397644    -0.25000
C797        C  0.77305252  0.77865355  0.51255826     0.27700
H798        H  0.75064748  0.77871708  0.47547655     0.13400
N799        N  0.81641637  0.86688252  0.47473565    -0.82300
H800        H  0.82430298  0.83742230  0.52465652     0.18300
N801        N  0.75850466  0.74854984  0.52522057    -0.80900
H802        H  0.79744018  0.84944420  0.46531292     0.33900
H803        H  0.85047129  0.87596015  0.47260578     0.38400
H804        H  0.77702827  0.76597998  0.53471609     0.33900
H805        H  0.72414466  0.73840088  0.52729402     0.30600
H806        H  0.62257415  0.72075864  0.49231878     0.33900
H807        H  0.66139613  0.74488281  0.50603038     0.30600
H808        H  0.69488255  0.57707960  0.49663218     0.38400
H809        H  0.74812978  0.61703992  0.49161991     0.33900
C810        C  0.97517832  0.03455691  0.50608698    -0.19800
C811        C  0.01427083  0.06372417  0.49758985     0.36400
C812        C  0.05154203  0.10116437  0.50458921    -0.25800
C813        C  0.04985622  0.10962945  0.51980564    -0.05300
C814        C  0.01036955  0.08092380  0.52817874     0.27600
C815        C  0.97324954  0.04391779  0.52118536    -0.24900
N816        N  0.01642744  0.05448696  0.48210763    -0.82300
H817        H  0.08211470  0.12355160  0.49825432     0.13400
C818        C  0.08979494  0.14803467  0.52711906     0.02800
N819        N  0.00880697  0.08874924  0.54385188    -0.80900
H820        H  0.94333230  0.02085034  0.52769714     0.18300
C821        C  0.08575757  0.18468644  0.53238157    -0.25700
C822        C  0.12150394  0.22005899  0.54043535     0.36300
C823        C  0.16157819  0.21827693  0.54360577    -0.19800
C824        C  0.16604732  0.18206157  0.53799954    -0.25000
C825        C  0.13042939  0.14682120  0.52975141     0.27700
H826        H  0.05463742  0.18577437  0.53021461     0.13400
N827        N  0.11757911  0.25839917  0.54499071    -0.82300
H828        H  0.19717289  0.18105729  0.54023157     0.18300
N829        N  0.13495577  0.10953281  0.52422935    -0.80900
H830        H  0.11256851  0.27323223  0.53545895     0.33900
H831        H  0.08839932  0.24640754  0.55168734     0.38400
H832        H  0.16713939  0.11399493  0.52700783     0.33900
H833        H  0.11054182  0.07994650  0.52969966     0.30600
H834        H  0.97718480  0.06453251  0.54836877     0.33900
H835        H  0.03378318  0.08388743  0.54911397     0.30600
H836        H  0.99197962  0.05932350  0.47650923     0.38400
H837        H  0.04833047  0.07820609  0.47764296     0.33900
C838        C  0.32397925  0.34324232  0.54462147    -0.19800
C839        C  0.34739915  0.32333658  0.53785526     0.36400
C840        C  0.38547024  0.35003830  0.52874706    -0.25800
C841        C  0.40041708  0.39626612  0.52633633     0.02800
C842        C  0.37812466  0.41671140  0.53343206     0.27600
C843        C  0.34003832  0.38995231  0.54252842    -0.24900
N844        N  0.33260504  0.27611281  0.54022542    -0.82300
H845        H  0.40301186  0.33454118  0.52336331     0.13400
C846        C  0.43882263  0.42288808  0.51605397     0.02800
N847        N  0.39361038  0.46424575  0.53103976    -0.80900
H848        H  0.32180449  0.40522806  0.54757616     0.18300
C849        C  0.42916129  0.42861402  0.50127757    -0.25700
C850        C  0.46473009  0.45553341  0.49129701     0.36300
C851        C  0.51081194  0.47658890  0.49625543    -0.19800
C852        C  0.52021349  0.47025436  0.51106156    -0.25000
C853        C  0.48455779  0.44368839  0.52104202     0.27700
H854        H  0.39369949  0.41260772  0.49762831     0.13400
N855        N  0.45420038  0.46238943  0.47629875    -0.82300
H856        H  0.55553463  0.48620290  0.51484095     0.18300
N857        N  0.49445829  0.43769905  0.53620652    -0.80900
H858        H  0.41872511  0.44433671  0.47446068     0.33900
H859        H  0.46485483  0.49700092  0.47507139     0.38400
H860        H  0.52992444  0.45494504  0.53805399     0.33900
H861        H  0.48112420  0.45301266  0.54310061     0.30600
H862        H  0.37303488  0.47383363  0.53690550     0.33900
H863        H  0.42666041  0.48308834  0.53552296     0.30600
H864        H  0.32492018  0.25997146  0.52984964     0.38400
H865        H  0.36004066  0.27400345  0.54482977     0.33900
C866        C  0.22043311  0.32829118  0.58633835    -0.19800
C867        C  0.18785168  0.34273224  0.58607232     0.36400
C868        C  0.18534787  0.36783924  0.59803170    -0.25800
C869        C  0.21629052  0.38076881  0.61002882     0.02800
C870        C  0.24761114  0.36456854  0.61065089     0.27600
C871        C  0.24902021  0.33813246  0.59884273    -0.24900
N872        N  0.15934885  0.33463422  0.57324165    -0.82300
H873        H  0.16074464  0.37951295  0.59753977     0.13400
C874        C  0.21884406  0.41508845  0.62089619     0.02800
N875        N  0.27921526  0.37664738  0.62290747    -0.80900
H876        H  0.27399647  0.32691056  0.59904986     0.18300
C877        C  0.21713665  0.40656496  0.63628048    -0.25700
C878        C  0.22275893  0.43981681  0.64678184     0.36300
C879        C  0.23027916  0.48271989  0.64174547    -0.19800
C880        C  0.23024362  0.49026317  0.62631155    -0.25000
C881        C  0.22507007  0.45735848  0.61589265     0.27700
H882        H  0.21152088  0.37379371  0.64010599     0.13400
N883        N  0.22097651  0.42999190  0.66244331    -0.82300
H884        H  0.23541423  0.52261809  0.62222098     0.18300
N885        N  0.22732473  0.46728893  0.60020996    -0.80900
H886        H  0.21705098  0.39769825  0.66418595     0.33900
H887        H  0.19142765  0.42854750  0.66671248     0.38400
H888        H  0.23131194  0.49957906  0.59838706     0.33900
H889        H  0.25674016  0.46837628  0.59598358     0.30600
H890        H  0.29956071  0.36160389  0.62172299     0.33900
H891        H  0.30147840  0.41195090  0.62251556     0.30600
H892        H  0.12506250  0.31662091  0.57666847     0.38400
H893        H  0.16604740  0.36620404  0.56902655     0.33900
C894        C  0.98904425  0.95787693  0.49707350    -0.19800
C895        C  0.99463567  0.94788040  0.48226461     0.36400
C896        C  0.03743463  0.95534485  0.47766750    -0.25800
C897        C  0.07446917  0.97270634  0.48757769     0.02800
C898        C  0.06889306  0.98199960  0.50247128     0.27600
C899        C  0.02589209  0.97464701  0.50711910    -0.24900
N900        N  0.95671862  0.93038959  0.47197162    -0.82300
H901        H  0.04212270  0.94777440  0.46630147     0.13400
C902        C  0.11819483  0.97862921  0.48216501     0.02800
N903        N  0.10677402  0.99861790  0.51272389    -0.80900
H904        H  0.02105278  0.98215043  0.51847178     0.18300
C905        C  0.15263908  0.02172584  0.47729743    -0.25700
C906        C  0.19332890  0.02733471  0.47109873     0.36300
C907        C  0.19937189  0.98933920  0.46984546    -0.19800
C908        C  0.16480665  0.94631624  0.47473341    -0.25000
C909        C  0.12403891  0.94053657  0.48084005     0.27700
H910        H  0.14769733  0.05084906  0.47820255     0.13400
N911        N  0.22873085  0.07157192  0.46636197    -0.82300
H912        H  0.16978945  0.91722996  0.47377338     0.18300
N913        N  0.08824372  0.89617529  0.48554570    -0.80900
H914        H  0.23842748  0.09354167  0.47550598     0.33900
H915        H  0.21485506  0.08348333  0.45827407     0.38400
H916        H  0.09777993  0.87165423  0.48364031     0.33900
H917        H  0.08451674  0.89731807  0.49706955     0.30600
H918        H  0.09669066  0.00323212  0.52327184     0.33900
H919        H  0.11552114  0.97323186  0.51392443     0.30600
H920        H  0.94822841  0.95576926  0.47026834     0.38400
H921        H  0.96636242  0.92401134  0.46159461     0.33900
C922        C  0.61101392  0.92023991  0.53463546    -0.19800
C923        C  0.64341615  0.96047665  0.52725919     0.36400
C924        C  0.68084516  0.96139672  0.52010819    -0.25800
C925        C  0.68617977  0.92302021  0.52038275     0.02800
C926        C  0.65369693  0.88278376  0.52762492     0.27600
C927        C  0.61631324  0.88178140  0.53471899    -0.24900
N928        N  0.63859777  0.00027368  0.52733800    -0.82300
H929        H  0.70669737  0.99242132  0.51472891     0.13400
C930        C  0.72894675  0.92708892  0.51483667     0.02800
N931        N  0.65941650  0.84350709  0.52791301    -0.80900
H932        H  0.59090051  0.85076191  0.54021691     0.18300
C933        C  0.76186017  0.93231821  0.52536943    -0.25700
C934        C  0.80311608  0.93579998  0.52091930     0.36300
C935        C  0.81126736  0.93386495  0.50561954    -0.19800
C936        C  0.77860266  0.92910379  0.49498845    -0.25000
C937        C  0.73698170  0.92545503  0.49952083     0.27700
H938        H  0.75525052  0.93383231  0.53710864     0.13400
N939        N  0.83756191  0.94289075  0.53180730    -0.82300
H940        H  0.78568371  0.92836072  0.48326023     0.18300
N941        N  0.70298953  0.92018733  0.48875279    -0.80900
H942        H  0.82680752  0.94534761  0.54250107     0.33900
H943        H  0.84115696  0.91402897  0.53187513     0.38400
H944        H  0.71441349  0.91983428  0.47796520     0.33900
H945        H  0.67384325  0.88818295  0.49051037     0.30600
H946        H  0.63265597  0.81675384  0.53382937     0.33900
H947        H  0.65698471  0.83225038  0.51694065     0.30600
H948        H  0.64167055  0.01116416  0.53838372     0.38400
H949        H  0.66541561  0.02695387  0.52142238     0.33900
C950        C  0.33481019  0.97260954  0.47954140    -0.19800
C951        C  0.38267345  0.00126811  0.48119963     0.36400
C952        C  0.40670929  0.98898157  0.49115901    -0.25800
C953        C  0.38343154  0.94905782  0.49966635     0.02800
C954        C  0.33568019  0.92107068  0.49836691     0.27600
C955        C  0.31165529  0.93284008  0.48825061    -0.24900
N956        N  0.40667375  0.04341921  0.47313847    -0.82300
H957        H  0.44355685  0.01079900  0.49235689     0.13400
C958        C  0.40964424  0.93683674  0.50985339     0.02800
N959        N  0.31170228  0.88069058  0.50729175    -0.80900
H960        H  0.27483624  0.91069678  0.48713293     0.18300
C961        C  0.41616208  0.95224746  0.52457957    -0.25700
C962        C  0.44349975  0.94370414  0.53437810     0.36300
C963        C  0.46389883  0.91866405  0.52927520    -0.19800
C964        C  0.45599432  0.90211479  0.51458950    -0.25000
C965        C  0.42911373  0.91117088  0.50478354     0.27700
H966        H  0.40083771  0.97198558  0.52827877     0.13400
N967        N  0.45181167  0.96156573  0.54928302    -0.82300
H968        H  0.47136097  0.88258185  0.51072418     0.18300
N969        N  0.42232032  0.89544963  0.48962422    -0.80900
H970        H  0.43407766  0.97899501  0.55124197     0.33900
H971        H  0.48679765  0.98560444  0.55018072     0.38400
H972        H  0.43966189  0.87766427  0.48760656     0.33900
H973        H  0.38732895  0.87208405  0.48821224     0.30600
H974        H  0.28710245  0.88338314  0.51358206     0.33900
H975        H  0.29447253  0.85280363  0.50013954     0.30600
H976        H  0.43238578  0.04278905  0.46683041     0.38400
H977        H  0.42253269  0.06994586  0.48085957     0.33900
C978        C  0.38163136  0.72956166  0.63842982    -0.19800
C979        C  0.37998191  0.71425483  0.62366928     0.36400
C980        C  0.40992336  0.74429517  0.61294238    -0.25800
C981        C  0.44238241  0.78931756  0.61657562     0.02800
C982        C  0.44646885  0.80424613  0.63142024     0.27600
C983        C  0.41589540  0.77419920  0.64224724    -0.24900
N984        N  0.34785660  0.66823343  0.61941411    -0.82300
H985        H  0.40691317  0.73262760  0.60154042     0.13400
C986        C  0.46885472  0.82057466  0.60428068     0.02800
N987        N  0.48119527  0.84985781  0.63534495    -0.80900
H988        H  0.41806559  0.78610498  0.65356696     0.18300
C989        C  0.46150174  0.85672984  0.60076315    -0.25700
C990        C  0.47809945  0.88113207  0.58740733     0.36300
C991        C  0.50223213  0.86899715  0.57732851    -0.19800
C992        C  0.51175159  0.83444578  0.58132435    -0.25000
C993        C  0.49552295  0.81031083  0.59474053     0.27700
H994        H  0.44092482  0.86464416  0.60807801     0.13400
N995        N  0.46996266  0.91783864  0.58406991    -0.82300
H996        H  0.53019471  0.82480135  0.57367335     0.18300
N997        N  0.50448746  0.77424831  0.59850720    -0.80900
H998        H  0.48424136  0.94185838  0.59262556     0.33900
H999        H  0.43445566  0.90483301  0.58405132     0.38400
H1000       H  0.52427660  0.77069104  0.59024614     0.33900
H1001       H  0.52428215  0.78388301  0.60823938     0.30600
H1002       H  0.47972025  0.85547431  0.64672245     0.33900
H1003       H  0.51315266  0.85266931  0.63346050     0.30600
H1004       H  0.32735316  0.66915648  0.61079625     0.38400
H1005       H  0.36632820  0.65344665  0.61527084     0.33900
C1006       C  0.85221719  0.31254663  0.43460283    -0.19800
C1007       C  0.86449285  0.30097200  0.42093503     0.36400
C1008       C  0.83902234  0.29708475  0.40800219    -0.25800
C1009       C  0.80237576  0.30552817  0.40847543     0.02800
C1010       C  0.79262005  0.32077894  0.42181037     0.27600
C1011       C  0.81730408  0.32370844  0.43476337    -0.24900
N1012       N  0.90229518  0.29265708  0.42030033    -0.82300
H1013       H  0.84670997  0.28597441  0.39765329     0.13400
C1014       C  0.77126378  0.29411482  0.39550830     0.02800
N1015       N  0.75663000  0.33184625  0.42219365    -0.80900
H1016       H  0.80785616  0.33289512  0.44516382     0.18300
C1017       C  0.72535520  0.25980043  0.39728971    -0.25700
C1018       C  0.69284626  0.25067052  0.38609384     0.36300
C1019       C  0.70653238  0.27674911  0.37283048    -0.19800
C1020       C  0.75322732  0.30876700  0.37056399    -0.25000
C1021       C  0.78585505  0.31790289  0.38187147     0.27700
H1022       H  0.71467267  0.24083637  0.40767048     0.13400
N1023       N  0.64575206  0.21560975  0.38825594    -0.82300
H1024       H  0.76379313  0.32855973  0.36034982     0.18300
N1025       N  0.83319543  0.35224297  0.37979488    -0.80900
H1026       H  0.64137120  0.19998820  0.39866784     0.33900
H1027       H  0.63795793  0.19037218  0.38026250     0.38400
H1028       H  0.83824508  0.36650338  0.36912823     0.33900
H1029       H  0.84086178  0.37855970  0.38733994     0.30600
H1030       H  0.75354897  0.34223463  0.43287015     0.33900
H1031       H  0.76632161  0.35986849  0.41514351     0.30600
H1032       H  0.93212056  0.32318243  0.42300141     0.38400
H1033       H  0.90669021  0.28441459  0.40944888     0.33900
C1034       C  0.59023735  0.50385229  0.44714420    -0.19800
C1035       C  0.62976187  0.50519506  0.44122611     0.36400
C1036       C  0.62703555  0.48508564  0.42726766    -0.25800
C1037       C  0.58555948  0.46322934  0.41930604     0.02800
C1038       C  0.54669975  0.46338361  0.42490036     0.27600
C1039       C  0.54945798  0.48386730  0.43871401    -0.24900
N1040       N  0.67180699  0.52511574  0.44964384    -0.82300
H1041       H  0.65669103  0.48451450  0.42289274     0.13400
C1042       C  0.58159467  0.43576486  0.40602290     0.02800
N1043       N  0.50425344  0.44149133  0.41669274    -0.80900
H1044       H  0.51927186  0.48335711  0.44310829     0.18300
C1045       C  0.55977746  0.38832034  0.40758894    -0.25700
C1046       C  0.55555789  0.36036737  0.39549181     0.36300
C1047       C  0.57437238  0.38052901  0.38149046    -0.19800
C1048       C  0.59496244  0.42816332  0.37986724    -0.25000
C1049       C  0.59866174  0.45598215  0.39202508     0.27700
H1050       H  0.54608295  0.37308014  0.41837133     0.13400
N1051       N  0.53214446  0.31162890  0.39741828    -0.82300
H1052       H  0.60923231  0.44387986  0.36919497     0.18300
N1053       N  0.61999639  0.50460285  0.39028416    -0.80900
H1054       H  0.52111110  0.30259234  0.40842823     0.33900
H1055       H  0.50254424  0.29765892  0.39080796     0.38400
H1056       H  0.63094314  0.51413433  0.37929320     0.33900
H1057       H  0.59491344  0.51349043  0.39225820     0.30600
H1058       H  0.47869338  0.44412457  0.42240684     0.33900
H1059       H  0.50965465  0.45929757  0.40666387     0.30600
H1060       H  0.66581655  0.50544607  0.45927166     0.38400
H1061       H  0.69750085  0.52333872  0.44369424     0.33900
C1062       C  0.45221850  0.13718339  0.36783850    -0.19800
C1063       C  0.46544963  0.11664485  0.37901916     0.36400
C1064       C  0.43257897  0.08659839  0.38921307    -0.25800
C1065       C  0.38699466  0.07691230  0.38843027     0.02800
C1066       C  0.37291193  0.09426736  0.37652266     0.27600
C1067       C  0.40573232  0.12408625  0.36620499    -0.24900
N1068       N  0.51251975  0.12766692  0.38026924    -0.82300
H1069       H  0.44310945  0.07292764  0.39836346     0.13400
C1070       C  0.35706045  0.05523975  0.40147234     0.02800
N1071       N  0.32582419  0.08315320  0.37541999    -0.80900
H1072       H  0.39556530  0.13947182  0.35749737     0.18300
C1073       C  0.34586734  0.08219205  0.41034474    -0.25700
C1074       C  0.32508730  0.06674638  0.42430312     0.36300
C1075       C  0.31411677  0.02288378  0.42925363    -0.19800
C1076       C  0.32362643  0.99513074  0.42009176    -0.25000
C1077       C  0.34523490  0.01102513  0.40622556     0.27700
H1078       H  0.35594849  0.11652766  0.40673857     0.13400
N1079       N  0.31734600  0.09630139  0.43379434    -0.82300
H1080       H  0.31523163  0.96148830  0.42396677     0.18300
N1081       N  0.35636459  0.98313632  0.39712991    -0.80900
H1082       H  0.32751042  0.12746827  0.42849409     0.33900
H1083       H  0.33848304  0.10363547  0.44315785     0.38400
H1084       H  0.34564777  0.95164882  0.40228191     0.33900
H1085       H  0.33757071  0.97631584  0.38723117     0.30600
H1086       H  0.32113765  0.09903309  0.36611153     0.33900
H1087       H  0.30588446  0.04798526  0.37364093     0.30600
H1088       H  0.52060379  0.11608271  0.37059887     0.38400
H1089       H  0.51659466  0.11003978  0.38918115     0.33900
C1090       C  0.56928077  0.71223922  0.16383623    -0.19800
C1091       C  0.53356951  0.66970395  0.15878054     0.36400
C1092       C  0.48826119  0.65598270  0.16260719    -0.25800
C1093       C  0.47841655  0.68377027  0.17148871     0.02800
C1094       C  0.51416982  0.72495373  0.17731396     0.27600
C1095       C  0.55967529  0.73876069  0.17349033    -0.24900
N1096       N  0.54356920  0.64112546  0.14959013    -0.82300
H1097       H  0.46033857  0.62417915  0.15832576     0.13400
C1098       C  0.43030488  0.67142948  0.17327381     0.02800
N1099       N  0.50391264  0.75310269  0.18662355    -0.80900
H1100       H  0.58746507  0.77111794  0.17746418     0.18300
C1101       C  0.40905240  0.65680609  0.18717795    -0.25700
C1102       C  0.36322457  0.64527692  0.18906220     0.36300
C1103       C  0.33890935  0.64900566  0.17689142    -0.19800
C1104       C  0.36016799  0.66324412  0.16296960    -0.25000
C1105       C  0.40578203  0.67447505  0.16101312     0.27700
H1106       H  0.42807957  0.65428747  0.19654082     0.13400
N1107       N  0.34165683  0.62996714  0.20328033    -0.82300
H1108       H  0.34093478  0.66554275  0.15362425     0.18300
N1109       N  0.42745110  0.68906335  0.14668375    -0.80900
H1110       H  0.34296188  0.60075163  0.20619557     0.33900
H1111       H  0.36113525  0.65520577  0.21111141     0.38400
H1112       H  0.40438528  0.68890683  0.13882278     0.33900
H1113       H  0.45392927  0.72295932  0.14770195     0.30600
H1114       H  0.53418578  0.78218719  0.19001287     0.33900
H1115       H  0.48574592  0.76453620  0.18017441     0.30600
H1116       H  0.56328796  0.63135167  0.15595024     0.38400
H1117       H  0.51337121  0.61114119  0.14675015     0.33900
C1118       C  0.77896333  0.83433134  0.05179344    -0.19800
C1119       C  0.73058547  0.81342381  0.05210479     0.36400
C1120       C  0.70676548  0.78994322  0.06500841    -0.25800
C1121       C  0.73050501  0.78833065  0.07765871     0.02800
C1122       C  0.77869431  0.80840480  0.07722084     0.27600
C1123       C  0.80227919  0.83071375  0.06424285    -0.24900
N1124       N  0.70605179  0.81774602  0.03965192    -0.82300
H1125       H  0.66974358  0.77454154  0.06546889     0.13400
C1126       C  0.70577482  0.77038499  0.09187217     0.02800
N1127       N  0.80365975  0.80746465  0.09013748    -0.80900
H1128       H  0.83935913  0.84644886  0.06399055     0.18300
C1129       C  0.70988199  0.73640913  0.09951494    -0.25700
C1130       C  0.69570891  0.72581435  0.11438423     0.36300
C1131       C  0.67677227  0.74945617  0.12157088    -0.19800
C1132       C  0.66877882  0.78027242  0.11351228    -0.25000
C1133       C  0.68355954  0.79142146  0.09873722     0.27700
H1134       H  0.72625230  0.71982123  0.09407478     0.13400
N1135       N  0.70143873  0.69209336  0.12233473    -0.82300
H1136       H  0.65362465  0.79785345  0.11907136     0.18300
N1137       N  0.67835925  0.82576418  0.09097494    -0.80900
H1138       H  0.71620471  0.67814466  0.11545657     0.33900
H1139       H  0.66871657  0.66544156  0.12515493     0.38400
H1140       H  0.66083484  0.83740862  0.09757271     0.33900
H1141       H  0.71118866  0.85374418  0.08918650     0.30600
H1142       H  0.83884710  0.82343134  0.08789595     0.33900
H1143       H  0.79965432  0.82662292  0.09847916     0.30600
H1144       H  0.71589128  0.85223042  0.03867000     0.38400
H1145       H  0.67070040  0.80011603  0.04169820     0.33900
C1146       C  0.95519277  0.60487537  0.21053578    -0.19800
C1147       C  0.96409950  0.61095306  0.19505261     0.36400
C1148       C  0.00102485  0.60785148  0.18921399    -0.25800
C1149       C  0.02702724  0.59547562  0.19829516     0.02800
C1150       C  0.01444960  0.58407374  0.21339026     0.27600
C1151       C  0.97978492  0.59036061  0.21944090    -0.24900
N1152       N  0.93580425  0.62037131  0.18533574    -0.82300
H1153       H  0.01032076  0.61653158  0.17763146     0.13400
C1154       C  0.07028391  0.59978599  0.19247657     0.02800
N1155       N  0.03770811  0.56713901  0.22259710    -0.80900
H1156       H  0.97275102  0.58486812  0.23126782     0.18300
C1157       C  0.11010629  0.62322385  0.20118621    -0.25700
C1158       C  0.15175891  0.62800489  0.19654077     0.36300
C1159       C  0.15509275  0.61316203  0.18219578    -0.19800
C1160       C  0.11586801  0.59094436  0.17316538    -0.25000
C1161       C  0.07313168  0.58280183  0.17840575     0.27700
H1162       H  0.10871940  0.63762901  0.21178903     0.13400
N1163       N  0.19091769  0.64790135  0.20635470    -0.82300
H1164       H  0.11821060  0.57926154  0.16216351     0.18300
N1165       N  0.03275081  0.55650242  0.16957984    -0.80900
H1166       H  0.19925885  0.62271075  0.20881153     0.33900
H1167       H  0.18281341  0.65723467  0.21647576     0.38400
H1168       H  0.03769463  0.57273272  0.15925731     0.33900
H1169       H  0.02938106  0.52451710  0.16772968     0.30600
H1170       H  0.02454723  0.56069213  0.23343287     0.33900
H1171       H  0.03081783  0.53580436  0.21820161     0.30600
H1172       H  0.90258729  0.59205455  0.18567578     0.38400
H1173       H  0.94690253  0.62368943  0.17429844     0.33900
C1174       C  0.87299643  0.69258437  0.21215096    -0.19800
C1175       C  0.85922114  0.71912852  0.22035881     0.36400
C1176       C  0.83702843  0.73920080  0.21294135    -0.25800
C1177       C  0.82970742  0.73409076  0.19753029     0.02800
C1178       C  0.84791891  0.71197712  0.18911825     0.27600
C1179       C  0.86956768  0.69152771  0.19652182    -0.24900
N1180       N  0.86632936  0.72415364  0.23619823    -0.82300
H1181       H  0.82317921  0.75672556  0.21925049     0.13400
C1182       C  0.79584669  0.74382294  0.19070244     0.02800
N1183       N  0.84161290  0.70777367  0.17321628    -0.80900
H1184       H  0.88021620  0.67142180  0.19012289     0.18300
C1185       C  0.81013742  0.77978744  0.18051083    -0.25700
C1186       C  0.77779536  0.78481515  0.17204912     0.36300
C1187       C  0.73056620  0.75236551  0.17363186    -0.19800
C1188       C  0.71656294  0.71786271  0.18444425    -0.25000
C1189       C  0.74873283  0.71323406  0.19299084     0.27700
H1190       H  0.84654106  0.80305516  0.17888103     0.13400
N1191       N  0.79266818  0.82210875  0.16171252    -0.82300
H1192       H  0.68049770  0.69261770  0.18561982     0.18300
N1193       N  0.73389907  0.67629533  0.20349935    -0.80900
H1194       H  0.82845708  0.84259290  0.16185769     0.33900
H1195       H  0.77950291  0.84249786  0.16536515     0.38400
H1196       H  0.69803168  0.65720546  0.20397485     0.33900
H1197       H  0.74481830  0.65430674  0.19958431     0.30600
H1198       H  0.85761802  0.69095227  0.16868665     0.33900
H1199       H  0.80647235  0.68711770  0.17109527     0.30600
H1200       H  0.90178013  0.74166761  0.23808232     0.38400
H1201       H  0.85387323  0.74443369  0.24052991     0.33900
C1202       C  0.70234402  0.40982867  0.30617429    -0.19800
C1203       C  0.73097433  0.40226982  0.29644021     0.36400
C1204       C  0.75593108  0.43461808  0.28537724    -0.25800
C1205       C  0.75402083  0.47475196  0.28396945     0.02800
C1206       C  0.72654991  0.48306388  0.29376292     0.27600
C1207       C  0.70088347  0.45049533  0.30472320    -0.24900
N1208       N  0.73414509  0.36159772  0.29752791    -0.82300
H1209       H  0.77707802  0.42850276  0.27772398     0.13400
C1210       C  0.78136759  0.50762603  0.27213332     0.02800
N1211       N  0.72477930  0.52444922  0.29250023    -0.80900
H1212       H  0.67925092  0.45684572  0.31206061     0.18300
C1213       C  0.75896965  0.51779599  0.26084582    -0.25700
C1214       C  0.78367040  0.54593912  0.24878013     0.36300
C1215       C  0.83183297  0.56488596  0.24824698    -0.19800
C1216       C  0.85410354  0.55525344  0.25973459    -0.25000
C1217       C  0.82937494  0.52671505  0.27164019     0.27700
H1218       H  0.72194491  0.50247136  0.26121998     0.13400
N1219       N  0.75992384  0.55411451  0.23689984    -0.82300
H1220       H  0.89108577  0.57016094  0.25940862     0.18300
N1221       N  0.85269954  0.51675414  0.28321435    -0.80900
H1222       H  0.72465456  0.53772092  0.23904811     0.33900
H1223       H  0.76398711  0.53938386  0.22723999     0.38400
H1224       H  0.88797500  0.53306203  0.28109949     0.33900
H1225       H  0.84868738  0.53042025  0.29313693     0.30600
H1226       H  0.70263432  0.52519414  0.30048613     0.33900
H1227       H  0.75757240  0.55168846  0.29490295     0.30600
H1228       H  0.75137314  0.36361089  0.30746367     0.38400
H1229       H  0.75444368  0.36035196  0.28895847     0.33900
C1230       C  0.49622500  0.95178538  0.19065401    -0.19800
C1231       C  0.50691682  0.91894967  0.18544411     0.36400
C1232       C  0.47114194  0.87449391  0.18246035    -0.25800
C1233       C  0.42536798  0.86217795  0.18506240     0.02800
C1234       C  0.41466033  0.89459066  0.19050623     0.27600
C1235       C  0.45025508  0.93931288  0.19313667    -0.24900
N1236       N  0.55398359  0.93049029  0.18367916    -0.82300
H1237       H  0.47893078  0.84892953  0.17854443     0.13400
C1238       C  0.38902770  0.81446122  0.18281185     0.02800
N1239       N  0.36775293  0.88162339  0.19353555    -0.80900
H1240       H  0.44222366  0.96451389  0.19724277     0.18300
C1241       C  0.36769555  0.78736708  0.19534443    -0.25700
C1242       C  0.33248875  0.74199048  0.19375260     0.36300
C1243       C  0.31990366  0.72317290  0.17936973    -0.19800
C1244       C  0.34067518  0.75044047  0.16679361    -0.25000
C1245       C  0.37492218  0.79639477  0.16839703     0.27700
H1246       H  0.37808950  0.80201994  0.20636948     0.13400
N1247       N  0.30780221  0.71562696  0.20658693    -0.82300
H1248       H  0.32944123  0.73602520  0.15578123     0.18300
N1249       N  0.39489226  0.82503378  0.15554049    -0.80900
H1250       H  0.32094220  0.73475590  0.21632543     0.33900
H1251       H  0.31306578  0.68794111  0.20748991     0.38400
H1252       H  0.38040546  0.80653082  0.14577468     0.33900
H1253       H  0.38611789  0.85055256  0.15587969     0.30600
H1254       H  0.36571335  0.90947869  0.19754456     0.33900
H1255       H  0.34991179  0.87226506  0.18343947     0.30600
H1256       H  0.56930699  0.93833776  0.19422927     0.38400
H1257       H  0.55582422  0.90236980  0.17984775     0.33900
C1258       C  0.58152267  0.16647198  0.29949035    -0.19800
C1259       C  0.54015085  0.12884681  0.29414416     0.36400
C1260       C  0.54040791  0.10846050  0.28059095    -0.25800
C1261       C  0.58100281  0.12447686  0.27244625     0.02800
C1262       C  0.62279824  0.15912711  0.27830855     0.27600
C1263       C  0.62274157  0.17975293  0.29181561    -0.24900
N1264       N  0.49784668  0.11234437  0.30220245    -0.82300
H1265       H  0.50854786  0.08118608  0.27604186     0.13400
C1266       C  0.57868609  0.10743787  0.25721174     0.02800
N1267       N  0.66478433  0.17425245  0.27020159    -0.80900
H1268       H  0.65472097  0.20800319  0.29588906     0.18300
C1269       C  0.58473997  0.13642751  0.24518558    -0.25700
C1270       C  0.58159848  0.12147498  0.23045168     0.36300
C1271       C  0.57317604  0.07687176  0.22778342    -0.19800
C1272       C  0.56703869  0.04792461  0.23990469    -0.25000
C1273       C  0.56955118  0.06277691  0.25462392     0.27700
H1274       H  0.59116026  0.17058746  0.24734917     0.13400
N1275       N  0.58605425  0.15101398  0.21823345    -0.82300
H1276       H  0.56083281  0.01379113  0.23787207     0.18300
N1277       N  0.56309928  0.03292881  0.26695071    -0.80900
H1278       H  0.59223479  0.18264052  0.22214525     0.33900
H1279       H  0.55455019  0.13615276  0.21263629     0.38400
H1280       H  0.55636970  0.00104116  0.26312583     0.33900
H1281       H  0.59407551  0.04700227  0.27284012     0.30600
H1282       H  0.69256162  0.20036542  0.27596035     0.33900
H1283       H  0.67073906  0.14684409  0.26969931     0.30600
H1284       H  0.50148079  0.09929489  0.31236798     0.38400
H1285       H  0.47067857  0.08518403  0.29657009     0.33900
C1286       C  0.99327918  0.35686567  0.13100290    -0.19800
C1287       C  0.02360704  0.34936930  0.13972790     0.36400
C1288       C  0.05806507  0.38541173  0.14794952    -0.25800
C1289       C  0.06240387  0.42870430  0.14752758     0.02800
C1290       C  0.03171926  0.43623494  0.13888910     0.27600
C1291       C  0.99705090  0.39989912  0.13075071    -0.24900
N1292       N  0.01902688  0.30504101  0.14035502    -0.82300
H1293       H  0.08176755  0.37977242  0.15456105     0.13400
C1294       C  0.10083814  0.46652160  0.15549477     0.02800
N1295       N  0.03528389  0.48033713  0.13870608    -0.80900
H1296       H  0.97290685  0.40501614  0.12419842     0.18300
C1297       C  0.13768413  0.49911860  0.14709180    -0.25700
C1298       C  0.17372839  0.53716356  0.15393124     0.36300
C1299       C  0.17386333  0.54196267  0.16950982    -0.19800
C1300       C  0.13782846  0.50857257  0.17807926    -0.25000
C1301       C  0.10069352  0.47085773  0.17112092     0.27700
H1302       H  0.13769376  0.49571158  0.13508349     0.13400
N1303       N  0.20906017  0.57222132  0.14495452    -0.82300
H1304       H  0.13780487  0.51307279  0.19002491     0.18300
N1305       N  0.06243386  0.43766445  0.17972336    -0.80900
H1306       H  0.22377646  0.55737983  0.13848860     0.33900
H1307       H  0.19350316  0.58452621  0.13765424     0.38400
H1308       H  0.06766805  0.44596152  0.19104226     0.33900
H1309       H  0.03355005  0.43953670  0.17650395     0.30600
H1310       H  0.00882829  0.47945916  0.13231928     0.33900
H1311       H  0.06590525  0.50313408  0.13333721     0.30600
H1312       H  0.05000913  0.30807400  0.13683740     0.38400
H1313       H  0.01381833  0.29428122  0.15147288     0.33900
C1314       C  0.83445732  0.22736506  0.13122417    -0.19800
C1315       C  0.83587482  0.20234636  0.14352569     0.36400
C1316       C  0.79589813  0.17516511  0.15166351    -0.25800
C1317       C  0.75421354  0.17202933  0.14755501     0.02800
C1318       C  0.75239404  0.19618987  0.13495573     0.27600
C1319       C  0.79282523  0.22385649  0.12687265    -0.24900
N1320       N  0.87793121  0.20421855  0.14764720    -0.82300
H1321       H  0.79749246  0.15672893  0.16133014     0.13400
C1322       C  0.71333178  0.14433159  0.15691088     0.02800
N1323       N  0.70960360  0.19237298  0.13044909    -0.80900
H1324       H  0.79203499  0.24287559  0.11725073     0.18300
C1325       C  0.69164708  0.16550535  0.16380698    -0.25700
C1326       C  0.65485338  0.14119236  0.17364519     0.36300
C1327       C  0.64006373  0.09498171  0.17677316    -0.19800
C1328       C  0.66132738  0.07366912  0.16965990    -0.25000
C1329       C  0.69771511  0.09783477  0.15969679     0.27700
H1330       H  0.70401076  0.20132751  0.16167980     0.13400
N1331       N  0.63246105  0.16315073  0.18044947    -0.82300
H1332       H  0.64996988  0.03821142  0.17209077     0.18300
N1333       N  0.71917590  0.07556193  0.15248305    -0.80900
H1334       H  0.64768185  0.19720222  0.17701608     0.33900
H1335       H  0.59855394  0.14682410  0.17659203     0.38400
H1336       H  0.70383354  0.04142534  0.15583117     0.33900
H1337       H  0.71319108  0.07540494  0.14103620     0.30600
H1338       H  0.71424726  0.21240098  0.12100659     0.33900
H1339       H  0.68748639  0.15847626  0.12733026     0.30600
H1340       H  0.88561861  0.21566277  0.15864943     0.38400
H1341       H  0.87257551  0.17106029  0.14726338     0.33900
C1342       C  0.93520629  0.24642409  0.08865897    -0.19800
C1343       C  0.90441540  0.23240820  0.07650748     0.36400
C1344       C  0.90607634  0.20347576  0.06571951    -0.25800
C1345       C  0.93837584  0.18916122  0.06678861     0.02800
C1346       C  0.97188504  0.20647797  0.07812158     0.27600
C1347       C  0.97008258  0.23523450  0.08897830    -0.24900
N1348       N  0.87055537  0.24626293  0.07553209    -0.82300
H1349       H  0.88080812  0.19029711  0.05683807     0.13400
C1350       C  0.93262520  0.15148708  0.05721261     0.02800
N1351       N  0.00646582  0.19350796  0.07883021    -0.80900
H1352       H  0.99391066  0.24627394  0.09826549     0.18300
C1353       C  0.95448542  0.16083117  0.04334713    -0.25700
C1354       C  0.94849882  0.12510916  0.03394570     0.36300
C1355       C  0.91989611  0.07940688  0.03860425    -0.19800
C1356       C  0.89806967  0.07046910  0.05253147    -0.25000
C1357       C  0.90400416  0.10604247  0.06185832     0.27700
H1358       H  0.97629697  0.19601082  0.03991264     0.13400
N1359       N  0.97186833  0.13508664  0.01986904    -0.82300
H1360       H  0.87581454  0.03548968  0.05609502     0.18300
N1361       N  0.88039498  0.09631683  0.07590925    -0.80900
H1362       H  0.99115346  0.17034297  0.01811262     0.33900
H1363       H  0.99529947  0.12345444  0.02041824     0.38400
H1364       H  0.85977000  0.06109786  0.07749831     0.33900
H1365       H  0.90510195  0.10810655  0.08437123     0.30600
H1366       H  0.02882184  0.20971650  0.08775416     0.33900
H1367       H  0.99009389  0.15848806  0.08101917     0.30600
H1368       H  0.88809119  0.28176263  0.07430099     0.38400
H1369       H  0.85034625  0.23273458  0.06598430     0.33900
C1370       C  0.29671457  0.37158433  0.20014333    -0.19800
C1371       C  0.33374813  0.41706006  0.20041238     0.36400
C1372       C  0.32602725  0.45273538  0.19638601    -0.25800
C1373       C  0.28252322  0.44363002  0.19171835     0.02800
C1374       C  0.24607944  0.39827197  0.19070923     0.27600
C1375       C  0.25344571  0.36266287  0.19506767    -0.24900
N1376       N  0.37906268  0.42674055  0.20453561    -0.82300
H1377       H  0.35398153  0.48779023  0.19683481     0.13400
C1378       C  0.27548337  0.48206645  0.18806388     0.02800
N1379       N  0.20212589  0.38858072  0.18498472    -0.80900
H1380       H  0.22513780  0.32778550  0.19467773     0.18300
C1381       C  0.28700443  0.50173607  0.17382678    -0.25700
C1382       C  0.28059352  0.53833294  0.17003177     0.36300
C1383       C  0.26194442  0.55500122  0.18060454    -0.19800
C1384       C  0.25053510  0.53528189  0.19484063    -0.25000
C1385       C  0.25782927  0.49938138  0.19878186     0.27700
H1386       H  0.30104372  0.48862959  0.16565950     0.13400
N1387       N  0.29280226  0.55817526  0.15547663    -0.82300
H1388       H  0.23681043  0.54875363  0.20299630     0.18300
N1389       N  0.24895046  0.48153568  0.21372992    -0.80900
H1390       H  0.27456570  0.53230021  0.14770778     0.33900
H1391       H  0.32773847  0.56989015  0.15389104     0.38400
H1392       H  0.23751532  0.49916051  0.22034618     0.33900
H1393       H  0.22212621  0.44772081  0.21335110     0.30600
H1394       H  0.17940695  0.35335221  0.18461364     0.33900
H1395       H  0.18801240  0.40182507  0.19240207     0.30600
H1396       H  0.38983413  0.41176150  0.19654673     0.38400
H1397       H  0.40230587  0.46184676  0.20413040     0.33900
C1398       C  0.35339585  0.30017051  0.23738158    -0.19800
C1399       C  0.38805162  0.28826138  0.23767366     0.36400
C1400       C  0.40900918  0.28879532  0.25126010    -0.25800
C1401       C  0.39691760  0.30204988  0.26443761     0.02800
C1402       C  0.36347703  0.31529051  0.26417032     0.27600
C1403       C  0.34194404  0.31423470  0.25060413    -0.24900
N1404       N  0.40220906  0.27623927  0.22415520    -0.82300
H1405       H  0.43511140  0.27904591  0.25160702     0.13400
C1406       C  0.41922660  0.30073466  0.27845079     0.02800
N1407       N  0.35144802  0.32943397  0.27767119    -0.80900
H1408       H  0.31548281  0.32348476  0.25039205     0.18300
C1409       C  0.45736496  0.34066909  0.28372743    -0.25700
C1410       C  0.48282689  0.33935642  0.29595109     0.36300
C1411       C  0.46946920  0.29729780  0.30317512    -0.19800
C1412       C  0.42991951  0.25772759  0.29812584    -0.25000
C1413       C  0.40488399  0.25901532  0.28579737     0.27700
H1414       H  0.46850151  0.37269688  0.27795345     0.13400
N1415       N  0.52329922  0.38041589  0.30046795    -0.82300
H1416       H  0.41913448  0.22526269  0.30353516     0.18300
N1417       N  0.36580775  0.21790778  0.28037031    -0.80900
H1418       H  0.51380121  0.40448422  0.30320771     0.33900
H1419       H  0.54564652  0.39299606  0.29136907     0.38400
H1420       H  0.36019935  0.18986285  0.28685333     0.33900
H1421       H  0.33688190  0.22137643  0.28166982     0.30600
H1422       H  0.32650134  0.33846705  0.27554377     0.33900
H1423       H  0.33645308  0.30131112  0.28485994     0.30600
H1424       H  0.41680491  0.30502750  0.21724744     0.38400
H1425       H  0.42791161  0.26827841  0.22632846     0.33900
C1426       C  0.20285639  0.87975963  0.14036937    -0.19800
C1427       C  0.16425483  0.84227611  0.14687669     0.36400
C1428       C  0.16992661  0.80914125  0.15444658    -0.25800
C1429       C  0.21343446  0.81351044  0.15562703     0.02800
C1430       C  0.25209395  0.85147049  0.14936047     0.27600
C1431       C  0.24641728  0.88450863  0.14179994    -0.24900
N1432       N  0.11962844  0.83783324  0.14556408    -0.82300
H1433       H  0.14039202  0.77938855  0.15914551     0.13400
C1434       C  0.21729418  0.77532510  0.16167587     0.02800
N1435       N  0.29656967  0.85545080  0.15035782    -0.80900
H1436       H  0.27587053  0.91386745  0.13689111     0.18300
C1437       C  0.21543476  0.74312852  0.15160603    -0.25700
C1438       C  0.22080836  0.70706837  0.15653144     0.36300
C1439       C  0.22799055  0.70298287  0.17175192    -0.19800
C1440       C  0.22958709  0.73502822  0.18193658    -0.25000
C1441       C  0.22419650  0.77147410  0.17698767     0.27700
H1442       H  0.21046296  0.74645646  0.13982264     0.13400
N1443       N  0.22024319  0.67514700  0.14600659    -0.82300
H1444       H  0.23583366  0.73206441  0.19361433     0.18300
N1445       N  0.22584993  0.80451684  0.18733238    -0.80900
H1446       H  0.24628247  0.69321854  0.13821898     0.33900
H1447       H  0.18873799  0.66010773  0.14040122     0.38400
H1448       H  0.23075016  0.79641556  0.19818543     0.33900
H1449       H  0.25469079  0.83599300  0.18475284     0.30600
H1450       H  0.32131102  0.88517712  0.14501392     0.33900
H1451       H  0.30571969  0.85901948  0.16160255     0.30600
H1452       H  0.12054378  0.86503626  0.15131796     0.38400
H1453       H  0.09484779  0.80797274  0.15083057     0.33900
C1454       C  0.27306477  0.21569911  0.19122512    -0.19800
C1455       C  0.22817484  0.19275779  0.18531292     0.36400
C1456       C  0.21481259  0.15540414  0.17582101    -0.25800
C1457       C  0.24562184  0.14061038  0.17219692     0.02800
C1458       C  0.29008802  0.16255153  0.17840664     0.27600
C1459       C  0.30348913  0.20010479  0.18782195    -0.24900
N1460       N  0.19589757  0.20680381  0.18914056    -0.82300
H1461       H  0.18039459  0.13803233  0.17119460     0.13400
C1462       C  0.23119308  0.10208141  0.16186098     0.02800
N1463       N  0.32130810  0.14651583  0.17509752    -0.80900
H1464       H  0.33796172  0.21762520  0.19240222     0.18300
C1465       C  0.25153291  0.11031647  0.14773737    -0.25700
C1466       C  0.24165393  0.07414023  0.13807900     0.36300
C1467       C  0.21072913  0.02903503  0.14259694    -0.19800
C1468       C  0.18897030  0.02110104  0.15652359    -0.25000
C1469       C  0.19925412  0.05721702  0.16628118     0.27700
H1470       H  0.27612930  0.14492361  0.14437381     0.13400
N1471       N  0.26459367  0.08319015  0.12400655    -0.82300
H1472       H  0.16484629  0.98642618  0.15995496     0.18300
N1473       N  0.17847347  0.04851014  0.18078911    -0.80900
H1474       H  0.29999175  0.10040594  0.12598140     0.33900
H1475       H  0.25694336  0.10494079  0.11793693     0.38400
H1476       H  0.15565021  0.01359871  0.18227596     0.33900
H1477       H  0.20456778  0.05782547  0.18869258     0.30600
H1478       H  0.35274277  0.16653906  0.18050269     0.33900
H1479       H  0.30730775  0.11356945  0.17950111     0.30600
H1480       H  0.18487117  0.21489482  0.17928821     0.38400
H1481       H  0.16744912  0.17909311  0.19410875     0.33900
C1482       C  0.16398109  0.93966667  0.09519536    -0.19800
C1483       C  0.18575347  0.97306104  0.08399994     0.36400
C1484       C  0.16159016  0.96994309  0.07084891    -0.25800
C1485       C  0.11625697  0.93422561  0.06885472     0.02800
C1486       C  0.09598212  0.89901056  0.07955214     0.27600
C1487       C  0.12041083  0.90179715  0.09254013    -0.24900
N1488       N  0.23150401  0.01067226  0.08629808    -0.82300
H1489       H  0.17704051  0.99666881  0.06250962     0.13400
C1490       C  0.08757799  0.93761792  0.05699923     0.02800
N1491       N  0.04954737  0.86219086  0.07764679    -0.80900
H1492       H  0.10389691  0.87615795  0.10116216     0.18300
C1493       C  0.06643966  0.90274816  0.04639327    -0.25700
C1494       C  0.03213336  0.90052693  0.03687588     0.36300
C1495       C  0.01988261  0.93461482  0.03781410    -0.19800
C1496       C  0.04260541  0.97052698  0.04797710    -0.25000
C1497       C  0.07602596  0.97218365  0.05768435     0.27700
H1498       H  0.07507347  0.87597894  0.04610831     0.13400
N1499       N  0.00814325  0.86266317  0.02687364    -0.82300
H1500       H  0.03319222  0.99670070  0.04865475     0.18300
N1501       N  0.09684603  0.00770666  0.06867751    -0.80900
H1502       H  0.02136403  0.84065137  0.02759667     0.33900
H1503       H  0.97399363  0.84396965  0.03043376     0.38400
H1504       H  0.08472864  0.03056544  0.06762321     0.33900
H1505       H  0.08641190  0.99248256  0.07917788     0.30600
H1506       H  0.03992255  0.83902170  0.08649685     0.33900
H1507       H  0.02794394  0.87601155  0.07805964     0.30600
H1508       H  0.25342056  0.99727623  0.08715467     0.38400
H1509       H  0.24238279  0.03237347  0.07702956     0.33900
loop_ 
_geom_bond_atom_site_label_1 
_geom_bond_atom_site_label_2 
_geom_bond_distance 
_geom_bond_site_symmetry_2 
_ccdc_geom_bond_type 
C1            C2   1.406       .  A
C1            C6   1.403       .  A
C1         C1482   1.476       .  S
C2            C3   1.403       .  A
C2            H7   1.084   1_565  S
C3            C4   1.399       .  A
C3         C1467   1.478   1_565  S
C4            C5   1.393       .  A
C4            H8   1.085       .  S
C5            C6   1.398       .  A
C5         C1426   1.464       .  S
C6            H9   1.084       .  S
C10          C11   1.404       .  A
C10          C15   1.403       .  A
C10        C1398   1.484       .  S
C11          C12   1.406       .  A
C11          H16   1.083       .  S
C12          C13   1.403       .  A
C12        C1370   1.483       .  S
C13          C14   1.401       .  A
C13          H17   1.084       .  S
C14          C15   1.400       .  A
C14        C1454   1.479       .  S
C15          H18   1.084       .  S
C19          C20   1.404       .  A
C19          C24   1.404       .  A
C19        C1342   1.478       .  S
C20          C21   1.402       .  A
C20          H25   1.084       .  S
C21          C22   1.397       .  A
C21        C1286   1.466       .  S
C22          C23   1.397       .  A
C22          H26   1.085       .  S
C23          C24   1.396       .  A
C23        C1314   1.467       .  S
C24          H27   1.084       .  S
C28          C29   1.401       .  A
C28          C33   1.403       .  A
C28        C1271   1.481       .  S
C29          C30   1.400   1_545  A
C29          H34   1.084   1_545  S
C30          C31   1.400   1_565  A
C30        C1230   1.477       .  S
C31          C32   1.402       .  A
C31          H35   1.084       .  S
C32          C33   1.403       .  A
C32        C1327   1.479       .  S
C33          H36   1.084       .  S
C37          C38   1.401       .  A
C37          C42   1.402       .  A
C37        C1215   1.481       .  S
C38          C39   1.404       .  A
C38          H43   1.082       .  S
C39          C40   1.401       .  A
C39        C1174   1.482       .  S
C40          C41   1.402       .  A
C40          H44   1.083       .  S
C41          C42   1.402       .  A
C41        C1146   1.485       .  S
C42          H45   1.083       .  S
C46          C47   1.401       .  A
C46          C51   1.395       .  A
C46        C1131   1.472       .  S
C47          C48   1.404       .  A
C47          H52   1.083       .  S
C48          C49   1.404       .  A
C48        C1187   1.480       .  S
C49          C50   1.397       .  A
C49          H53   1.084       .  S
C50          C51   1.398       .  A
C50        C1090   1.468       .  S
C51          H54   1.084       .  S
C55          C56   1.401       .  A
C55          C60   1.400       .  A
C55        C1439   1.476       .  S
C56          C57   1.404       .  A
C56        C1159   1.479       .  S
C57          C58   1.406       .  A
C57        C1299   1.473       .  S
C58          C59   1.410       .  A
C58        C1383   1.481       .  S
C59          C60   1.409       .  A
C59        C1103   1.473       .  S
C60        C1243   1.478       .  S
O61          C77   1.271       .  A
O61         Zn67   1.986       .  S
C62        C1047   1.488       .  S
C62          O78   1.273       .  A
C62          O75   1.277       .  A
O63          C76   1.274       .  A
O63         Cd70   2.073       .  S
O64          C82   1.275       .  A
O64         Cd73   2.078       .  S
O65          C79   1.273       .  A
O65         Cd69   2.057       .  S
O66          C77   1.275       .  A
O66         Cd69   2.082       .  S
Zn67         O78   2.000       .  S
Zn67         O80   2.000       .  S
Zn67         O72   1.910       .  S
O68          C79   1.276       .  A
O68         Cd73   2.066       .  S
Cd69         O71   2.070       .  S
Cd69         O72   2.000       .  S
Cd70         O74   2.052       .  S
Cd70         O83   2.055       .  S
Cd70         O72   1.989       .  S
O71          C81   1.276       .  A
O72         Cd73   2.005       .  S
Cd73         O75   2.087       .  S
O74          C81   1.273       .  A
C76        C1062   1.474       .  S
C76          O80   1.272       .  A
C77        C1019   1.478       .  S
C79        C1202   1.488       .  S
C81        C1258   1.484       .  S
C82        C1411   1.487       .  S
C82          O83   1.274       .  A
C84          C85   1.404       .  A
C84          C89   1.406       .  A
C84         C991   1.484       .  S
C85          C86   1.400       .  A
C85          H90   1.084       .  S
C86          C87   1.395       .  A
C86         C922   1.470       .  S
C87          C88   1.399       .  A
C87          H91   1.084       .  S
C88          C89   1.403       .  A
C88         C963   1.476       .  S
C89          H92   1.083       .  S
C93          C94   1.402   1_545  A
C93          C98   1.405       .  A
C93        C1075   1.478       .  S
C94          C95   1.401       .  A
C94          H99   1.084       .  S
C95          C96   1.397       .  A
C95         C950   1.475       .  S
C96          C97   1.397       .  A
C96         H100   1.085       .  S
C97          C98   1.402   1_565  A
C97         C907   1.469       .  S
C98         H101   1.084       .  S
C102        C103   1.404       .  A
C102        C107   1.404       .  A
C102        C866   1.483       .  S
C103        C104   1.406       .  A
C103        H108   1.084       .  S
C104        C105   1.400       .  A
C104        C823   1.479       .  S
C105        C106   1.400       .  A
C105        H109   1.084       .  S
C106        C107   1.403       .  A
C106        C838   1.479       .  S
C107        H110   1.084       .  S
C111        C112   1.406       .  A
C111        C116   1.407       .  A
C111       C1034   1.488       .  S
C112        C113   1.402       .  A
C112        H117   1.084       .  S
C113        C114   1.401       .  A
C113        C851   1.482       .  S
C114        C115   1.399       .  A
C114        H118   1.084       .  S
C115        C116   1.406       .  A
C115        C782   1.476       .  S
C116        H119   1.083       .  S
C120        C121   1.406       .  A
C120        C125   1.406       .  A
C120        C698   1.484       .  S
C121        C122   1.403       .  A
C121        H126   1.084       .  S
C122        C123   1.401       .  A
C122        C726   1.479       .  S
C123        C124   1.401       .  A
C123        H127   1.084       .  S
C124        C125   1.404       .  A
C124        C767   1.481       .  S
C125        H128   1.084       .  S
C129        C130   1.405       .  A
C129        C134   1.405       .  A
C129       C1006   1.487       .  S
C130        C131   1.405       .  A
C130        H135   1.083       .  S
C131        C132   1.406       .  A
C131        C739   1.486       .  S
C132        C133   1.402       .  A
C132        H136   1.084       .  S
C133        C134   1.401       .  A
C133        C670   1.477       .  S
C134        H137   1.084       .  S
C138        C139   1.408       .  A
C138        C143   1.403       .  A
C138        C711   1.485       .  S
C139        C140   1.412       .  A
C139        C795   1.485       .  S
C140        C141   1.407       .  A
C140        C935   1.469       .  S
C141        C142   1.404       .  A
C141        C683   1.487   1_565  S
C142        C143   1.405       .  A
C142        C810   1.479   1_565  S
C143        C894   1.472       .  S
C144        C145   1.401       .  A
C144        C149   1.403       .  A
C144        C586   1.475       .  S
C145        C146   1.402       .  A
C145        H150   1.084       .  S
C146        C147   1.404       .  A
C146        C614   1.476       .  S
C147        C148   1.401       .  A
C147        H151   1.084       .  S
C148        C149   1.399       .  A
C148        C642   1.472       .  S
C149        H152   1.084       .  S
C153        C154   1.405       .  A
C153        C158   1.404       .  A
C153        C571   1.484       .  S
C154        C155   1.401       .  A
C154        H159   1.084       .  S
C155        C156   1.397       .  A
C155        C627   1.475       .  S
C156        C157   1.397       .  A
C156        H160   1.085       .  S
C157        C158   1.401       .  A
C157        C530   1.467   1_565  S
C158        H161   1.083       .  S
C162        C163   1.402       .  A
C162        C167   1.403       .  A
C162        C502   1.475       .  S
C163        C164   1.402       .  A
C163        H168   1.084       .  S
C164        C165   1.397       .  A
C164        C474   1.473       .  S
C165        C166   1.396       .  A
C165        H169   1.084       .  S
C166        C167   1.405       .  A
C166        C446   1.475       .  S
C167        H170   1.084       .  S
C171        C172   1.405       .  A
C171        C176   1.403       .  A
C171        C418   1.483       .  S
C172        C173   1.401       .  A
C172        H177   1.084       .  S
C173        C174   1.396       .  A
C173        C487   1.469       .  S
C174        C175   1.398       .  A
C174        H178   1.084       .  S
C175        C176   1.402       .  A
C175        C390   1.476       .  S
C176        H179   1.083       .  S
C180        C181   1.405       .  A
C180        C185   1.405       .  A
C180        C375   1.479       .  S
C181        C182   1.402       .  A
C181        H186   1.084       .  S
C182        C183   1.400       .  A
C182        C334   1.481       .  S
C183        C184   1.398       .  A
C183        H187   1.084       .  S
C184        C185   1.403       .  A
C184        C306   1.478       .  S
C185        H188   1.084       .  S
C189        C190   1.402       .  A
C189        C194   1.401       .  A
C189        C278   1.473       .  S
C190        C191   1.403       .  A
C190        H195   1.084       .  S
C191        C192   1.401       .  A
C191        C250   1.475       .  S
C192        C193   1.400       .  A
C192        H196   1.084       .  S
C193        C194   1.397       .  A
C193        C347   1.473       .  S
C194        H197   1.084       .  S
C198        C199   1.407       .  A
C198        C203   1.410       .  A
C198        C599   1.479       .  S
C199        C200   1.408       .  A
C199        C319   1.478       .  S
C200        C201   1.406       .  A
C200        C459   1.475       .  S
C201        C202   1.401       .  A
C201        C543   1.481       .  S
C202        C203   1.404       .  A
C202        C263   1.478       .  S
C203        C403   1.476       .  S
O204        C220   1.272       .  A
O204       Zn210   1.997       .  S
C205       C1355   1.478       .  S
C205        O221   1.272       .  A
C205        O218   1.275       .  A
O206        C219   1.274       .  A
O206       Cd213   2.068       .  S
O207        C225   1.273       .  A
O207       Cd216   2.059       .  S
O208        C222   1.274       .  A
O208       Cd212   2.065   1_556  S
O209        C220   1.273       .  A
O209       Cd212   2.065       .  S
Zn210       O221   1.995   1_565  S
Zn210       O223   1.991       .  S
Zn210       O215   1.914       .  S
O211        C222   1.275   1_545  A
O211       Cd216   2.065   1_545  S
Cd212       O214   2.058   1_554  S
Cd212       O215   1.992       .  S
Cd213       O217   2.076   1_554  S
Cd213       O226   2.060   1_554  S
Cd213       O215   2.001       .  S
O214        C224   1.273       .  A
O215       Cd216   1.995   1_554  S
Cd216       O218   2.077   1_566  S
O217        C224   1.275       .  A
C219       C1118   1.475       .  S
C219        O223   1.273       .  A
C220       C1495   1.473   1_655  S
C222        C362   1.485   1_565  S
C224        C431   1.467       .  S
C225        C558   1.461       .  S
C225        O226   1.273       .  A
O227        C243   1.272       .  A
O227       Zn233   1.993       .  S
C228        C754   1.495       .  S
C228        O244   1.271       .  A
C228        O241   1.275       .  A
O229        C242   1.277       .  A
O229       Cd236   2.085       .  S
O230        C248   1.275       .  A
O230       Cd239   2.060       .  S
O231        C245   1.275       .  A
O231       Cd235   2.065       .  S
O232        C243   1.275       .  A
O232       Cd235   2.082       .  S
Zn233       O244   2.004       .  S
Zn233       O246   1.991       .  S
Zn233       O238   1.915       .  S
O234        C245   1.273       .  A
O234       Cd239   2.057       .  S
Cd235       O237   2.078       .  S
Cd235       O238   2.007       .  S
Cd236       O240   2.073       .  S
Cd236       O249   2.077       .  S
Cd236       O238   2.007       .  S
O237        C247   1.277       .  A
O238       Cd239   1.999       .  S
Cd239       O241   2.087       .  S
O240        C247   1.275       .  A
C242        C978   1.485       .  S
C242        O246   1.272       .  A
C243        C879   1.492       .  S
C245        C291   1.482       .  S
C247        C655   1.494       .  S
C248        C515   1.486       .  S
C248        O249   1.277       .  A
C250        C251   1.409       .  A
C250        C255   1.402       .  A
C251        C252   1.402       .  A
C251        N256   1.432       .  S
C252        C253   1.401       .  A
C252        H257   1.084       .  S
C253        C254   1.409       .  A
C253        C258   1.472       .  S
C254        C255   1.401       .  A
C254        N259   1.438       .  S
C255        H260   1.084       .  S
N256        H276   1.045       .  S
N256        H277   1.046       .  S
C258        C261   1.398       .  A
C258        C265   1.409       .  A
N259        H274   1.046       .  S
N259        H275   1.045       .  S
C261        C262   1.391       .  A
C261        H266   1.084       .  S
C262        C263   1.413       .  A
C262        N267   1.434       .  S
C263        C264   1.403       .  A
C264        C265   1.406       .  A
C264        H268   1.083       .  S
C265        N269   1.437       .  S
N267        H270   1.043       .  S
N267        H271   1.045       .  S
N269        H272   1.046       .  S
N269        H273   1.046       .  S
C278        C279   1.410       .  A
C278        C283   1.402       .  A
C279        C280   1.402   1_655  A
C279        N284   1.438       .  S
C280        C281   1.401       .  A
C280        H285   1.084       .  S
C281        C282   1.409       .  A
C281        C286   1.473       .  S
C282        C283   1.401   1_455  A
C282        N287   1.438       .  S
C283        H288   1.084       .  S
N284        H304   1.046       .  S
N284        H305   1.045       .  S
C286        C289   1.398       .  A
C286        C293   1.408       .  A
N287        H302   1.046       .  S
N287        H303   1.046       .  S
C289        C290   1.403       .  A
C289        H294   1.084       .  S
C290        C291   1.417       .  A
C290        N295   1.438       .  S
C291        C292   1.406       .  A
C292        C293   1.402       .  A
C292        H296   1.083       .  S
C293        N297   1.438       .  S
N295        H298   1.046       .  S
N295        H299   1.046       .  S
N297        H300   1.046       .  S
N297        H301   1.046       .  S
C306        C307   1.410       .  A
C306        C311   1.406       .  A
C307        C308   1.405       .  A
C307        N312   1.437       .  S
C308        C309   1.403       .  A
C308        H313   1.084       .  S
C309        C310   1.405       .  A
C309        C314   1.471       .  S
C310        C311   1.401       .  A
C310        N315   1.438       .  S
C311        H316   1.084       .  S
N312        H332   1.045       .  S
N312        H333   1.046       .  S
C314        C317   1.403       .  A
C314        C321   1.407       .  A
N315        H330   1.045       .  S
N315        H331   1.046       .  S
C317        C318   1.403       .  A
C317        H322   1.084       .  S
C318        C319   1.405       .  A
C318        N323   1.431       .  S
C319        C320   1.400       .  A
C320        C321   1.399       .  A
C320        H324   1.084       .  S
C321        N325   1.438       .  S
N323        H326   1.046       .  S
N323        H327   1.045       .  S
N325        H328   1.045       .  S
N325        H329   1.046       .  S
C334        C335   1.412       .  A
C334        C339   1.406       .  A
C335        C336   1.405       .  A
C335        N340   1.437   1_455  S
C336        C337   1.402       .  A
C336        H341   1.084   1_455  S
C337        C338   1.406       .  A
C337        C342   1.473       .  S
C338        C339   1.399       .  A
C338        N343   1.438       .  S
C339        H344   1.084       .  S
N340        H360   1.045   1_655  S
N340        H361   1.046       .  S
C342        C345   1.400       .  A
C342        C349   1.409   1_455  A
N343        H358   1.045       .  S
N343        H359   1.046       .  S
C345        C346   1.398   1_455  A
C345        H350   1.084       .  S
C346        C347   1.408       .  A
C346        N351   1.433       .  S
C347        C348   1.403       .  A
C348        C349   1.404       .  A
C348        H352   1.084       .  S
C349        N353   1.437   1_655  S
N351        H354   1.046   1_655  S
N351        H355   1.045       .  S
N353        H356   1.046   1_455  S
N353        H357   1.045       .  S
C362        C363   1.417   1_655  A
C362        C367   1.407       .  A
C363        C364   1.406       .  A
C363        N368   1.438   1_545  S
C364        C365   1.399       .  A
C364        H369   1.084       .  S
C365        C366   1.406       .  A
C365        C370   1.475       .  S
C366        C367   1.403   1_455  A
C366        N371   1.438   1_455  S
C367        H372   1.083       .  S
N368        H388   1.046   1_565  S
N368        H389   1.046       .  S
C370        C373   1.401       .  A
C370        C377   1.408       .  A
N371        H386   1.046       .  S
N371        H387   1.045   1_655  S
C373        C374   1.401       .  A
C373        H378   1.084   1_455  S
C374        C375   1.408       .  A
C374        N379   1.432       .  S
C375        C376   1.405       .  A
C376        C377   1.405       .  A
C376        H380   1.084       .  S
C377        N381   1.437       .  S
N379        H382   1.046   1_545  S
N379        H383   1.045   1_455  S
N381        H384   1.046       .  S
N381        H385   1.045       .  S
C390        C391   1.412       .  A
C390        C395   1.405       .  A
C391        C392   1.398       .  A
C391        N396   1.432       .  S
C392        C393   1.399       .  A
C392        H397   1.084       .  S
C393        C394   1.404       .  A
C393        C398   1.467       .  S
C394        C395   1.399       .  A
C394        N399   1.433       .  S
C395        H400   1.084       .  S
N396        H416   1.045       .  S
N396        H417   1.046       .  S
C398        C401   1.401       .  A
C398        C405   1.402       .  A
N399        H414   1.046       .  S
N399        H415   1.045       .  S
C401        C402   1.400       .  A
C401        H406   1.084       .  S
C402        C403   1.415       .  A
C402        N407   1.436       .  S
C403        C404   1.404       .  A
C404        C405   1.393       .  A
C404        H408   1.085       .  S
C405        N409   1.433       .  S
N407        H410   1.041       .  S
N407        H411   1.045       .  S
N409        H412   1.045       .  S
N409        H413   1.046       .  S
C418        C419   1.413       .  A
C418        C423   1.402       .  A
C419        C420   1.402       .  A
C419        N424   1.438       .  S
C420        C421   1.404       .  A
C420        H425   1.083       .  S
C421        C422   1.416       .  A
C421        C426   1.491       .  S
C422        C423   1.405       .  A
C422        N427   1.438       .  S
C423        H428   1.084       .  S
N424        H444   1.046       .  S
N424        H445   1.045       .  S
C426        C429   1.407       .  A
C426        C433   1.417       .  A
N427        H442   1.045       .  S
N427        H443   1.046       .  S
C429        C430   1.406       .  A
C429        H434   1.083       .  S
C430        C431   1.406       .  A
C430        N435   1.437       .  S
C431        C432   1.398       .  A
C432        C433   1.403       .  A
C432        H436   1.084       .  S
C433        N437   1.439       .  S
N435        H438   1.046       .  S
N435        H439   1.045   1_556  S
N437        H440   1.046       .  S
N437        H441   1.046       .  S
C446        C447   1.414       .  A
C446        C451   1.402       .  A
C447        C448   1.400   1_565  A
C447        N452   1.438       .  S
C448        C449   1.398       .  A
C448        H453   1.084       .  S
C449        C450   1.408   1_545  A
C449        C454   1.466       .  S
C450        C451   1.402       .  A
C450        N455   1.437   1_565  S
C451        H456   1.084       .  S
N452        H472   1.045       .  S
N452        H473   1.046       .  S
C454        C457   1.402       .  A
C454        C461   1.408       .  A
N455        H470   1.046   1_545  S
N455        H471   1.044       .  S
C457        C458   1.403       .  A
C457        H462   1.084       .  S
C458        C459   1.407       .  A
C458        N463   1.431       .  S
C459        C460   1.397       .  A
C460        C461   1.395       .  A
C460        H464   1.084       .  S
C461        N465   1.439       .  S
N463        H466   1.046       .  S
N463        H467   1.045       .  S
N465        H468   1.046       .  S
N465        H469   1.044       .  S
C474        C475   1.407       .  A
C474        C479   1.403       .  A
C475        C476   1.399       .  A
C475        N480   1.432       .  S
C476        C477   1.402       .  A
C476        H481   1.084       .  S
C477        C478   1.410       .  A
C477        C482   1.475       .  S
C478        C479   1.401       .  A
C478        N483   1.438       .  S
C479        H484   1.084       .  S
N480        H500   1.046       .  S
N480        H501   1.045       .  S
C482        C485   1.402       .  A
C482        C489   1.411       .  A
N483        H498   1.045       .  S
N483        H499   1.046       .  S
C485        C486   1.398   1_455  A
C485        H490   1.084       .  S
C486        C487   1.406       .  A
C486        N491   1.432       .  S
C487        C488   1.401       .  A
C488        C489   1.403   1_655  A
C488        H492   1.084       .  S
C489        N493   1.438       .  S
N491        H494   1.045   1_655  S
N491        H495   1.046       .  S
N493        H496   1.046   1_455  S
N493        H497   1.045       .  S
C502        C503   1.405       .  A
C502        C507   1.403       .  A
C503        C504   1.401       .  A
C503        N508   1.432       .  S
C504        C505   1.404       .  A
C504        H509   1.084       .  S
C505        C506   1.412       .  A
C505        C510   1.484       .  S
C506        C507   1.408       .  A
C506        N511   1.437       .  S
C507        H512   1.084       .  S
N508        H528   1.046       .  S
N508        H529   1.046       .  S
C510        C513   1.402       .  A
C510        C517   1.410       .  A
N511        H526   1.046       .  S
N511        H527   1.045       .  S
C513        C514   1.406       .  A
C513        H518   1.084       .  S
C514        C515   1.416       .  A
C514        N519   1.438       .  S
C515        C516   1.406       .  A
C516        C517   1.405       .  A
C516        H520   1.083       .  S
C517        N521   1.438       .  S
N519        H522   1.046       .  S
N519        H523   1.045       .  S
N521        H524   1.045       .  S
N521        H525   1.046       .  S
C530        C531   1.407       .  A
C530        C535   1.402       .  A
C531        C532   1.403       .  A
C531        N536   1.437   1_545  S
C532        C533   1.404       .  A
C532        H537   1.084       .  S
C533        C534   1.407       .  A
C533        C538   1.471       .  S
C534        C535   1.400       .  A
C534        N539   1.438       .  S
C535        H540   1.084       .  S
N536        H556   1.046       .  S
N536        H557   1.045       .  S
C538        C541   1.398       .  A
C538        C545   1.408       .  A
N539        H554   1.046       .  S
N539        H555   1.046       .  S
C541        C542   1.397       .  A
C541        H546   1.084       .  S
C542        C543   1.411       .  A
C542        N547   1.439       .  S
C543        C544   1.403       .  A
C544        C545   1.403       .  A
C544        H548   1.082       .  S
C545        N549   1.437       .  S
N547        H550   1.046       .  S
N547        H551   1.045       .  S
N549        H552   1.045       .  S
N549        H553   1.046       .  S
C558        C559   1.408       .  A
C558        C563   1.398       .  A
C559        C560   1.407       .  A
C559        N564   1.437   1_556  S
C560        C561   1.403       .  A
C560        H565   1.084       .  S
C561        C562   1.410       .  A
C561        C566   1.475       .  S
C562        C563   1.397       .  A
C562        N567   1.439       .  S
C563        H568   1.084       .  S
N564        H584   1.046       .  S
N564        H585   1.046       .  S
C566        C569   1.400       .  A
C566        C573   1.407       .  A
N567        H582   1.046       .  S
N567        H583   1.046       .  S
C569        C570   1.401       .  A
C569        H574   1.084   1_565  S
C570        C571   1.416       .  A
C570        N575   1.438   1_565  S
C571        C572   1.406       .  A
C572        C573   1.404       .  A
C572        H576   1.084       .  S
C573        N577   1.438       .  S
N575        H578   1.046       .  S
N575        H579   1.045       .  S
N577        H580   1.046       .  S
N577        H581   1.046       .  S
C586        C587   1.408       .  A
C586        C591   1.403       .  A
C587        C588   1.400       .  A
C587        N592   1.432       .  S
C588        C589   1.399       .  A
C588        H593   1.084       .  S
C589        C590   1.409       .  A
C589        C594   1.469       .  S
C590        C591   1.404       .  A
C590        N595   1.438       .  S
C591        H596   1.084       .  S
N592        H612   1.046       .  S
N592        H613   1.045       .  S
C594        C597   1.398       .  A
C594        C601   1.409       .  A
N595        H610   1.046       .  S
N595        H611   1.045       .  S
C597        C598   1.395       .  A
C597        H602   1.084       .  S
C598        C599   1.406       .  A
C598        N603   1.432       .  S
C599        C600   1.403       .  A
C600        C601   1.407       .  A
C600        H604   1.083       .  S
C601        N605   1.437       .  S
N603        H606   1.045       .  S
N603        H607   1.045       .  S
N605        H608   1.045       .  S
N605        H609   1.046       .  S
C614        C615   1.408       .  A
C614        C619   1.402       .  A
C615        C616   1.400       .  A
C615        N620   1.432       .  S
C616        C617   1.402       .  A
C616        H621   1.084       .  S
C617        C618   1.412       .  A
C617        C622   1.480       .  S
C618        C619   1.404       .  A
C618        N623   1.438       .  S
C619        H624   1.084       .  S
N620        H640   1.046       .  S
N620        H641   1.046       .  S
C622        C625   1.402       .  A
C622        C629   1.412       .  A
N623        H638   1.046       .  S
N623        H639   1.046       .  S
C625        C626   1.402       .  A
C625        H630   1.084       .  S
C626        C627   1.412       .  A
C626        N631   1.438       .  S
C627        C628   1.401       .  A
C628        C629   1.403       .  A
C628        H632   1.084       .  S
C629        N633   1.438       .  S
N631        H634   1.045       .  S
N631        H635   1.046       .  S
N633        H636   1.046       .  S
N633        H637   1.045       .  S
C642        C643   1.404       .  A
C642        C647   1.403       .  A
C643        C644   1.399       .  A
C643        N648   1.432       .  S
C644        C645   1.402       .  A
C644        H649   1.084       .  S
C645        C646   1.411       .  A
C645        C650   1.480       .  S
C646        C647   1.410       .  A
C646        N651   1.437       .  S
C647        H652   1.084       .  S
N648        H668   1.046       .  S
N648        H669   1.045       .  S
C650        C653   1.399       .  A
C650        C657   1.408       .  A
N651        H666   1.045       .  S
N651        H667   1.046       .  S
C653        C654   1.403       .  A
C653        H658   1.084       .  S
C654        C655   1.418       .  A
C654        N659   1.432       .  S
C655        C656   1.409       .  A
C656        C657   1.407       .  A
C656        H660   1.083       .  S
C657        N661   1.438       .  S
N659        H662   1.045       .  S
N659        H663   1.046       .  S
N661        H664   1.046       .  S
N661        H665   1.045       .  S
C670        C671   1.410       .  A
C670        C675   1.401       .  A
C671        C672   1.407       .  A
C671        N676   1.438       .  S
C672        C673   1.402       .  A
C672        H677   1.084       .  S
C673        C674   1.412       .  A
C673        C678   1.485       .  S
C674        C675   1.407       .  A
C674        N679   1.438       .  S
C675        H680   1.084       .  S
N676        H696   1.046       .  S
N676        H697   1.045       .  S
C678        C681   1.401       .  A
C678        C685   1.413       .  A
N679        H694   1.046       .  S
N679        H695   1.046       .  S
C681        C682   1.403       .  A
C681        H686   1.084       .  S
C682        C683   1.410       .  A
C682        N687   1.438       .  S
C683        C684   1.402       .  A
C684        C685   1.409       .  A
C684        H688   1.083       .  S
C685        N689   1.437       .  S
N687        H690   1.045       .  S
N687        H691   1.046   1_545  S
N689        H692   1.046       .  S
N689        H693   1.045       .  S
C698        C699   1.414       .  A
C698        C703   1.403       .  A
C699        C700   1.406       .  A
C699        N704   1.438   1_655  S
C700        C701   1.402       .  A
C700        H705   1.084       .  S
C701        C702   1.411       .  A
C701        C706   1.483       .  S
C702        C703   1.406       .  A
C702        N707   1.438       .  S
C703        H708   1.084       .  S
N704        H724   1.046       .  S
N704        H725   1.046       .  S
C706        C709   1.405       .  A
C706        C713   1.410       .  A
N707        H722   1.045       .  S
N707        H723   1.045       .  S
C709        C710   1.403       .  A
C709        H714   1.084       .  S
C710        C711   1.405       .  A
C710        N715   1.430       .  S
C711        C712   1.403       .  A
C712        C713   1.404       .  A
C712        H716   1.084       .  S
C713        N717   1.438       .  S
N715        H718   1.045       .  S
N715        H719   1.046       .  S
N717        H720   1.046       .  S
N717        H721   1.046       .  S
C726        C727   1.409       .  A
C726        C731   1.404       .  A
C727        C728   1.408       .  A
C727        N732   1.437       .  S
C728        C729   1.404       .  A
C728        H733   1.084       .  S
C729        C730   1.408       .  A
C729        C734   1.480       .  S
C730        C731   1.402       .  A
C730        N735   1.438       .  S
C731        H736   1.084       .  S
N732        H752   1.046       .  S
N732        H753   1.045       .  S
C734        C737   1.402       .  A
C734        C741   1.409       .  A
N735        H750   1.045   1_655  S
N735        H751   1.046       .  S
C737        C738   1.402       .  A
C737        H742   1.084       .  S
C738        C739   1.411       .  A
C738        N743   1.432       .  S
C739        C740   1.406       .  A
C740        C741   1.406       .  A
C740        H744   1.083       .  S
C741        N745   1.437       .  S
N743        H746   1.045       .  S
N743        H747   1.046       .  S
N745        H748   1.045       .  S
N745        H749   1.046       .  S
C754        C755   1.418       .  A
C754        C759   1.411       .  A
C755        C756   1.400       .  A
C755        N760   1.433       .  S
C756        C757   1.399       .  A
C756        H761   1.084       .  S
C757        C758   1.408       .  A
C757        C762   1.483       .  S
C758        C759   1.411       .  A
C758        N763   1.437       .  S
C759        H764   1.083       .  S
N760        H780   1.046       .  S
N760        H781   1.046       .  S
C762        C765   1.404   1_455  A
C762        C769   1.411       .  A
N763        H778   1.045       .  S
N763        H779   1.046       .  S
C765        C766   1.406       .  A
C765        H770   1.084       .  S
C766        C767   1.409       .  A
C766        N771   1.432       .  S
C767        C768   1.402   1_655  A
C768        C769   1.403       .  A
C768        H772   1.084       .  S
C769        N773   1.438       .  S
N771        H774   1.045       .  S
N771        H775   1.046       .  S
N773        H776   1.046       .  S
N773        H777   1.045       .  S
C782        C783   1.410       .  A
C782        C787   1.402       .  A
C783        C784   1.407       .  A
C783        N788   1.437       .  S
C784        C785   1.403       .  A
C784        H789   1.084       .  S
C785        C786   1.408       .  A
C785        C790   1.477       .  S
C786        C787   1.404       .  A
C786        N791   1.438       .  S
C787        H792   1.084       .  S
N788        H808   1.046       .  S
N788        H809   1.046       .  S
C790        C793   1.399       .  A
C790        C797   1.409       .  A
N791        H806   1.045       .  S
N791        H807   1.046       .  S
C793        C794   1.400       .  A
C793        H798   1.084       .  S
C794        C795   1.410       .  A
C794        N799   1.439       .  S
C795        C796   1.405       .  A
C796        C797   1.408       .  A
C796        H800   1.083       .  S
C797        N801   1.437       .  S
N799        H802   1.046       .  S
N799        H803   1.045       .  S
N801        H804   1.046       .  S
N801        H805   1.045       .  S
C810        C811   1.409   1_655  A
C810        C815   1.402       .  A
C811        C812   1.407       .  A
C811        N816   1.436       .  S
C812        C813   1.404       .  A
C812        H817   1.083       .  S
C813        C814   1.407       .  A
C813        C818   1.475       .  S
C814        C815   1.398   1_455  A
C814        N819   1.438       .  S
C815        H820   1.084       .  S
N816        H836   1.044   1_455  S
N816        H837   1.045       .  S
C818        C821   1.400       .  A
C818        C825   1.409       .  A
N819        H834   1.046   1_455  S
N819        H835   1.046       .  S
C821        C822   1.399       .  A
C821        H826   1.084       .  S
C822        C823   1.409       .  A
C822        N827   1.432       .  S
C823        C824   1.405       .  A
C824        C825   1.405       .  A
C824        H828   1.084       .  S
C825        N829   1.437       .  S
N827        H830   1.046       .  S
N827        H831   1.045       .  S
N829        H832   1.046       .  S
N829        H833   1.045       .  S
C838        C839   1.410       .  A
C838        C843   1.404       .  A
C839        C840   1.402       .  A
C839        N844   1.432       .  S
C840        C841   1.400       .  A
C840        H845   1.084       .  S
C841        C842   1.407       .  A
C841        C846   1.472       .  S
C842        C843   1.402       .  A
C842        N847   1.438       .  S
C843        H848   1.084       .  S
N844        H864   1.046       .  S
N844        H865   1.046       .  S
C846        C849   1.400       .  A
C846        C853   1.405       .  A
N847        H862   1.046       .  S
N847        H863   1.045       .  S
C849        C850   1.404       .  A
C849        H854   1.084       .  S
C850        C851   1.414       .  A
C850        N855   1.438       .  S
C851        C852   1.405       .  A
C852        C853   1.403       .  A
C852        H856   1.084       .  S
C853        N857   1.438       .  S
N855        H858   1.046       .  S
N855        H859   1.046       .  S
N857        H860   1.045       .  S
N857        H861   1.045       .  S
C866        C867   1.409       .  A
C866        C871   1.403       .  A
C867        C868   1.401       .  A
C867        N872   1.433       .  S
C868        C869   1.405       .  A
C868        H873   1.084       .  S
C869        C870   1.414       .  A
C869        C874   1.490       .  S
C870        C871   1.407       .  A
C870        N875   1.438       .  S
C871        H876   1.084       .  S
N872        H892   1.045       .  S
N872        H893   1.046       .  S
C874        C877   1.405       .  A
C874        C881   1.411       .  A
N875        H890   1.046       .  S
N875        H891   1.045       .  S
C877        C878   1.410       .  A
C877        H882   1.083       .  S
C878        C879   1.417       .  A
C878        N883   1.437       .  S
C879        C880   1.407       .  A
C880        C881   1.400       .  A
C880        H884   1.083       .  S
C881        N885   1.439       .  S
N883        H886   1.046       .  S
N883        H887   1.046       .  S
N885        H888   1.046       .  S
N885        H889   1.045       .  S
C894        C895   1.409       .  A
C894        C899   1.401   1_655  A
C895        C896   1.396   1_655  A
C895        N900   1.439       .  S
C896        C897   1.397       .  A
C896        H901   1.084       .  S
C897        C898   1.409       .  A
C897        C902   1.467       .  S
C898        C899   1.405       .  A
C898        N903   1.437       .  S
C899        H904   1.084       .  S
N900        H920   1.045       .  S
N900        H921   1.046       .  S
C902        C905   1.402   1_565  A
C902        C909   1.406       .  A
N903        H918   1.045   1_565  S
N903        H919   1.045       .  S
C905        C906   1.402       .  A
C905        H910   1.084       .  S
C906        C907   1.406   1_545  A
C906        N911   1.432       .  S
C907        C908   1.402       .  A
C908        C909   1.399       .  A
C908        H912   1.084       .  S
C909        N913   1.438       .  S
N911        H914   1.046       .  S
N911        H915   1.046       .  S
N913        H916   1.046       .  S
N913        H917   1.045       .  S
C922        C923   1.411       .  A
C922        C927   1.402       .  A
C923        C924   1.403       .  A
C923        N928   1.438   1_565  S
C924        C925   1.400       .  A
C924        H929   1.084       .  S
C925        C926   1.406       .  A
C925        C930   1.465       .  S
C926        C927   1.398       .  A
C926        N931   1.438       .  S
C927        H932   1.084       .  S
N928        H948   1.046       .  S
N928        H949   1.046       .  S
C930        C933   1.396       .  A
C930        C937   1.408       .  A
N931        H946   1.046       .  S
N931        H947   1.045       .  S
C933        C934   1.394       .  A
C933        H938   1.084       .  S
C934        C935   1.409       .  A
C934        N939   1.439       .  S
C935        C936   1.401       .  A
C936        C937   1.405       .  A
C936        H940   1.083       .  S
C937        N941   1.437       .  S
N939        H942   1.045       .  S
N939        H943   1.045       .  S
N941        H944   1.045       .  S
N941        H945   1.046       .  S
C950        C951   1.410   1_565  A
C950        C955   1.405       .  A
C951        C952   1.399   1_545  A
C951        N956   1.433       .  S
C952        C953   1.399       .  A
C952        H957   1.084   1_565  S
C953        C954   1.402       .  A
C953        C958   1.465       .  S
C954        C955   1.398       .  A
C954        N959   1.432       .  S
C955        H960   1.084       .  S
N956        H976   1.045       .  S
N956        H977   1.046       .  S
C958        C961   1.398       .  A
C958        C965   1.405       .  A
N959        H974   1.046       .  S
N959        H975   1.045       .  S
C961        C962   1.402       .  A
C961        H966   1.084       .  S
C962        C963   1.412       .  A
C962        N967   1.438       .  S
C963        C964   1.406       .  A
C964        C965   1.400       .  A
C964        H968   1.084       .  S
C965        N969   1.438       .  S
N967        H970   1.046       .  S
N967        H971   1.045       .  S
N969        H972   1.046       .  S
N969        H973   1.046       .  S
C978        C979   1.415       .  A
C978        C983   1.408       .  A
C979        C980   1.395       .  A
C979        N984   1.433       .  S
C980        C981   1.398       .  A
C980        H985   1.084       .  S
C981        C982   1.408       .  A
C981        C986   1.477       .  S
C982        C983   1.409       .  A
C982        N987   1.437       .  S
C983        H988   1.083       .  S
N984       H1004   1.046       .  S
N984       H1005   1.046       .  S
C986        C989   1.402       .  A
C986        C993   1.408       .  A
N987       H1002   1.045       .  S
N987       H1003   1.046       .  S
C989        C990   1.402       .  A
C989        H994   1.084       .  S
C990        C991   1.412       .  A
C990        N995   1.433       .  S
C991        C992   1.406       .  A
C992        C993   1.402       .  A
C992        H996   1.083       .  S
C993        N997   1.438       .  S
N995        H998   1.045       .  S
N995        H999   1.046       .  S
N997       H1000   1.046       .  S
N997       H1001   1.045       .  S
C1006      C1007   1.414       .  A
C1006      C1011   1.405       .  A
C1007      C1008   1.407       .  A
C1007      N1012   1.437       .  S
C1008      C1009   1.401       .  A
C1008      H1013   1.084       .  S
C1009      C1010   1.409       .  A
C1009      C1014   1.479       .  S
C1010      C1011   1.401       .  A
C1010      N1015   1.438       .  S
C1011      H1016   1.083       .  S
N1012      H1032   1.046       .  S
N1012      H1033   1.046       .  S
C1014      C1017   1.400       .  A
C1014      C1021   1.410       .  A
N1015      H1030   1.045       .  S
N1015      H1031   1.046       .  S
C1017      C1018   1.399       .  A
C1017      H1022   1.084       .  S
C1018      C1019   1.413       .  A
C1018      N1023   1.439       .  S
C1019      C1020   1.406       .  A
C1020      C1021   1.409       .  A
C1020      H1024   1.084       .  S
C1021      N1025   1.437       .  S
N1023      H1026   1.046       .  S
N1023      H1027   1.046       .  S
N1025      H1028   1.046       .  S
N1025      H1029   1.045       .  S
C1034      C1035   1.414       .  A
C1034      C1039   1.407       .  A
C1035      C1036   1.409       .  A
C1035      N1040   1.438       .  S
C1036      C1037   1.402       .  A
C1036      H1041   1.084       .  S
C1037      C1038   1.406       .  A
C1037      C1042   1.479       .  S
C1038      C1039   1.403       .  A
C1038      N1043   1.438       .  S
C1039      H1044   1.084       .  S
N1040      H1060   1.045       .  S
N1040      H1061   1.046       .  S
C1042      C1045   1.399       .  A
C1042      C1049   1.407       .  A
N1043      H1058   1.045       .  S
N1043      H1059   1.046       .  S
C1045      C1046   1.403       .  A
C1045      H1050   1.084       .  S
C1046      C1047   1.418       .  A
C1046      N1051   1.439       .  S
C1047      C1048   1.408       .  A
C1048      C1049   1.409       .  A
C1048      H1052   1.083       .  S
C1049      N1053   1.437       .  S
N1051      H1054   1.046       .  S
N1051      H1055   1.046       .  S
N1053      H1056   1.046       .  S
N1053      H1057   1.046       .  S
C1062      C1063   1.412       .  A
C1062      C1067   1.403       .  A
C1063      C1064   1.402       .  A
C1063      N1068   1.438       .  S
C1064      C1065   1.401       .  A
C1064      H1069   1.084       .  S
C1065      C1066   1.409       .  A
C1065      C1070   1.477       .  S
C1066      C1067   1.406       .  A
C1066      N1071   1.437       .  S
C1067      H1072   1.084       .  S
N1068      H1088   1.046       .  S
N1068      H1089   1.046       .  S
C1070      C1073   1.402       .  A
C1070      C1077   1.408       .  A
N1071      H1086   1.046       .  S
N1071      H1087   1.046       .  S
C1073      C1074   1.402       .  A
C1073      H1078   1.084       .  S
C1074      C1075   1.410       .  A
C1074      N1079   1.438       .  S
C1075      C1076   1.405   1_545  A
C1076      C1077   1.405   1_565  A
C1076      H1080   1.084       .  S
C1077      N1081   1.437   1_545  S
N1079      H1082   1.045       .  S
N1079      H1083   1.046       .  S
N1081      H1084   1.045       .  S
N1081      H1085   1.046       .  S
C1090      C1091   1.410       .  A
C1090      C1095   1.402       .  A
C1091      C1092   1.397       .  A
C1091      N1096   1.438       .  S
C1092      C1093   1.398       .  A
C1092      H1097   1.084       .  S
C1093      C1094   1.408       .  A
C1093      C1098   1.465       .  S
C1094      C1095   1.402       .  A
C1094      N1099   1.438       .  S
C1095      H1100   1.084       .  S
N1096      H1116   1.046       .  S
N1096      H1117   1.045       .  S
C1098      C1101   1.400       .  A
C1098      C1105   1.408       .  A
N1099      H1114   1.046       .  S
N1099      H1115   1.046       .  S
C1101      C1102   1.399       .  A
C1101      H1106   1.084       .  S
C1102      C1103   1.406       .  A
C1102      N1107   1.431       .  S
C1103      C1104   1.400       .  A
C1104      C1105   1.396       .  A
C1104      H1108   1.084       .  S
C1105      N1109   1.438       .  S
N1107      H1110   1.045       .  S
N1107      H1111   1.046       .  S
N1109      H1112   1.046       .  S
N1109      H1113   1.046       .  S
C1118      C1119   1.413       .  A
C1118      C1123   1.403       .  A
C1119      C1120   1.405       .  A
C1119      N1124   1.438       .  S
C1120      C1121   1.403       .  A
C1120      H1125   1.084       .  S
C1121      C1122   1.410       .  A
C1121      C1126   1.477       .  S
C1122      C1123   1.398       .  A
C1122      N1127   1.439       .  S
C1123      H1128   1.084       .  S
N1124      H1144   1.046       .  S
N1124      H1145   1.046       .  S
C1126      C1129   1.403       .  A
C1126      C1133   1.411       .  A
N1127      H1142   1.046       .  S
N1127      H1143   1.046       .  S
C1129      C1130   1.402       .  A
C1129      H1134   1.084       .  S
C1130      C1131   1.409       .  A
C1130      N1135   1.438       .  S
C1131      C1132   1.401       .  A
C1132      C1133   1.400       .  A
C1132      H1136   1.084       .  S
C1133      N1137   1.438       .  S
N1135      H1138   1.045       .  S
N1135      H1139   1.046       .  S
N1137      H1140   1.046       .  S
N1137      H1141   1.045       .  S
C1146      C1147   1.415       .  A
C1146      C1151   1.403       .  A
C1147      C1148   1.403   1_655  A
C1147      N1152   1.438       .  S
C1148      C1149   1.403       .  A
C1148      H1153   1.083       .  S
C1149      C1150   1.414       .  A
C1149      C1154   1.486       .  S
C1150      C1151   1.400   1_455  A
C1150      N1155   1.439       .  S
C1151      H1156   1.083       .  S
N1152      H1172   1.046       .  S
N1152      H1173   1.045       .  S
C1154      C1157   1.402       .  A
C1154      C1161   1.413       .  A
N1155      H1170   1.046       .  S
N1155      H1171   1.045       .  S
C1157      C1158   1.394       .  A
C1157      H1162   1.083       .  S
C1158      C1159   1.409       .  A
C1158      N1163   1.439       .  S
C1159      C1160   1.402       .  A
C1160      C1161   1.405       .  A
C1160      H1164   1.083       .  S
C1161      N1165   1.432       .  S
N1163      H1166   1.047       .  S
N1163      H1167   1.044       .  S
N1165      H1168   1.046       .  S
N1165      H1169   1.046       .  S
C1174      C1175   1.413       .  A
C1174      C1179   1.406       .  A
C1175      C1176   1.403       .  A
C1175      N1180   1.437       .  S
C1176      C1177   1.400       .  A
C1176      H1181   1.084       .  S
C1177      C1178   1.407       .  A
C1177      C1182   1.469       .  S
C1178      C1179   1.398       .  A
C1178      N1183   1.439       .  S
C1179      H1184   1.083       .  S
N1180      H1200   1.045       .  S
N1180      H1201   1.046       .  S
C1182      C1185   1.399       .  A
C1182      C1189   1.407       .  A
N1183      H1198   1.046       .  S
N1183      H1199   1.046       .  S
C1185      C1186   1.404       .  A
C1185      H1190   1.084       .  S
C1186      C1187   1.414       .  A
C1186      N1191   1.437       .  S
C1187      C1188   1.404       .  A
C1188      C1189   1.397       .  A
C1188      H1192   1.083       .  S
C1189      N1193   1.439       .  S
N1191      H1194   1.046       .  S
N1191      H1195   1.045       .  S
N1193      H1196   1.046       .  S
N1193      H1197   1.046       .  S
C1202      C1203   1.419       .  A
C1202      C1207   1.409       .  A
C1203      C1204   1.402       .  A
C1203      N1208   1.438       .  S
C1204      C1205   1.399       .  A
C1204      H1209   1.084       .  S
C1205      C1206   1.406       .  A
C1205      C1210   1.478       .  S
C1206      C1207   1.404       .  A
C1206      N1211   1.438       .  S
C1207      H1212   1.083       .  S
N1208      H1228   1.046       .  S
N1208      H1229   1.046       .  S
C1210      C1213   1.403       .  A
C1210      C1217   1.408       .  A
N1211      H1226   1.046       .  S
N1211      H1227   1.045       .  S
C1213      C1214   1.405       .  A
C1213      H1218   1.084       .  S
C1214      C1215   1.414       .  A
C1214      N1219   1.438       .  S
C1215      C1216   1.404       .  A
C1216      C1217   1.399       .  A
C1216      H1220   1.084       .  S
C1217      N1221   1.438       .  S
N1219      H1222   1.046       .  S
N1219      H1223   1.045       .  S
N1221      H1224   1.046       .  S
N1221      H1225   1.045       .  S
C1230      C1231   1.413       .  A
C1230      C1235   1.403       .  A
C1231      C1232   1.403       .  A
C1231      N1236   1.438       .  S
C1232      C1233   1.400       .  A
C1232      H1237   1.084       .  S
C1233      C1234   1.407       .  A
C1233      C1238   1.471       .  S
C1234      C1235   1.401       .  A
C1234      N1239   1.438       .  S
C1235      H1240   1.084       .  S
N1236      H1256   1.046       .  S
N1236      H1257   1.045       .  S
C1238      C1241   1.399       .  A
C1238      C1245   1.408       .  A
N1239      H1254   1.046       .  S
N1239      H1255   1.044       .  S
C1241      C1242   1.399       .  A
C1241      H1246   1.084       .  S
C1242      C1243   1.408       .  A
C1242      N1247   1.438       .  S
C1243      C1244   1.401       .  A
C1244      C1245   1.404       .  A
C1244      H1248   1.083       .  S
C1245      N1249   1.437       .  S
N1247      H1250   1.046       .  S
N1247      H1251   1.042       .  S
N1249      H1252   1.046       .  S
N1249      H1253   1.046       .  S
C1258      C1259   1.418       .  A
C1258      C1263   1.407       .  A
C1259      C1260   1.404       .  A
C1259      N1264   1.438       .  S
C1260      C1261   1.398       .  A
C1260      H1265   1.084       .  S
C1261      C1262   1.405       .  A
C1261      C1266   1.473       .  S
C1262      C1263   1.402       .  A
C1262      N1267   1.438       .  S
C1263      H1268   1.083       .  S
N1264      H1284   1.046       .  S
N1264      H1285   1.046       .  S
C1266      C1269   1.401       .  A
C1266      C1273   1.405       .  A
N1267      H1282   1.046       .  S
N1267      H1283   1.046       .  S
C1269      C1270   1.402       .  A
C1269      H1274   1.084       .  S
C1270      C1271   1.412       .  A
C1270      N1275   1.438       .  S
C1271      C1272   1.406       .  A
C1272      C1273   1.403       .  A
C1272      H1276   1.084       .  S
C1273      N1277   1.437       .  S
N1275      H1278   1.046       .  S
N1275      H1279   1.045       .  S
N1277      H1280   1.046       .  S
N1277      H1281   1.045       .  S
C1286      C1287   1.405   1_655  A
C1286      C1291   1.399       .  A
C1287      C1288   1.400       .  A
C1287      N1292   1.432       .  S
C1288      C1289   1.400       .  A
C1288      H1293   1.084       .  S
C1289      C1290   1.411       .  A
C1289      C1294   1.470       .  S
C1290      C1291   1.403   1_455  A
C1290      N1295   1.438       .  S
C1291      H1296   1.084       .  S
N1292      H1312   1.046       .  S
N1292      H1313   1.045       .  S
C1294      C1297   1.396       .  A
C1294      C1301   1.411       .  A
N1295      H1310   1.046       .  S
N1295      H1311   1.045       .  S
C1297      C1298   1.393       .  A
C1297      H1302   1.084       .  S
C1298      C1299   1.408       .  A
C1298      N1303   1.433       .  S
C1299      C1300   1.401       .  A
C1300      C1301   1.408       .  A
C1300      H1304   1.083       .  S
C1301      N1305   1.437       .  S
N1303      H1306   1.044       .  S
N1303      H1307   1.045       .  S
N1305      H1308   1.046       .  S
N1305      H1309   1.046       .  S
C1314      C1315   1.405       .  A
C1314      C1319   1.401       .  A
C1315      C1316   1.396       .  A
C1315      N1320   1.433       .  S
C1316      C1317   1.402       .  A
C1316      H1321   1.084       .  S
C1317      C1318   1.413       .  A
C1317      C1322   1.478       .  S
C1318      C1319   1.406       .  A
C1318      N1323   1.437       .  S
C1319      H1324   1.084       .  S
N1320      H1340   1.045       .  S
N1320      H1341   1.046       .  S
C1322      C1325   1.402       .  A
C1322      C1329   1.410       .  A
N1323      H1338   1.045       .  S
N1323      H1339   1.046       .  S
C1325      C1326   1.403       .  A
C1325      H1330   1.084       .  S
C1326      C1327   1.412       .  A
C1326      N1331   1.438       .  S
C1327      C1328   1.404       .  A
C1328      C1329   1.402       .  A
C1328      H1332   1.084       .  S
C1329      N1333   1.438       .  S
N1331      H1334   1.046       .  S
N1331      H1335   1.046       .  S
N1333      H1336   1.046       .  S
N1333      H1337   1.046       .  S
C1342      C1343   1.411       .  A
C1342      C1347   1.404       .  A
C1343      C1344   1.402       .  A
C1343      N1348   1.438       .  S
C1344      C1345   1.399       .  A
C1344      H1349   1.084       .  S
C1345      C1346   1.408       .  A
C1345      C1350   1.472       .  S
C1346      C1347   1.404       .  A
C1346      N1351   1.438   1_655  S
C1347      H1352   1.084       .  S
N1348      H1368   1.046       .  S
N1348      H1369   1.045       .  S
C1350      C1353   1.400       .  A
C1350      C1357   1.407       .  A
N1351      H1366   1.046       .  S
N1351      H1367   1.045   1_455  S
C1353      C1354   1.407       .  A
C1353      H1358   1.084       .  S
C1354      C1355   1.414       .  A
C1354      N1359   1.437       .  S
C1355      C1356   1.405       .  A
C1356      C1357   1.400       .  A
C1356      H1360   1.084       .  S
C1357      N1361   1.439       .  S
N1359      H1362   1.046       .  S
N1359      H1363   1.046       .  S
N1361      H1364   1.046       .  S
N1361      H1365   1.045       .  S
C1370      C1371   1.414       .  A
C1370      C1375   1.406       .  A
C1371      C1372   1.405       .  A
C1371      N1376   1.438       .  S
C1372      C1373   1.400       .  A
C1372      H1377   1.084       .  S
C1373      C1374   1.407       .  A
C1373      C1378   1.472       .  S
C1374      C1375   1.403       .  A
C1374      N1379   1.439       .  S
C1375      H1380   1.084       .  S
N1376      H1396   1.046       .  S
N1376      H1397   1.046       .  S
C1378      C1381   1.401       .  A
C1378      C1385   1.408       .  A
N1379      H1394   1.046       .  S
N1379      H1395   1.044       .  S
C1381      C1382   1.403       .  A
C1381      H1386   1.084       .  S
C1382      C1383   1.407       .  A
C1382      N1387   1.430       .  S
C1383      C1384   1.402       .  A
C1384      C1385   1.401       .  A
C1384      H1388   1.084       .  S
C1385      N1389   1.438       .  S
N1387      H1390   1.045       .  S
N1387      H1391   1.046       .  S
N1389      H1392   1.046       .  S
N1389      H1393   1.044       .  S
C1398      C1399   1.414       .  A
C1398      C1403   1.406       .  A
C1399      C1400   1.402       .  A
C1399      N1404   1.438       .  S
C1400      C1401   1.399       .  A
C1400      H1405   1.084       .  S
C1401      C1402   1.407       .  A
C1401      C1406   1.475       .  S
C1402      C1403   1.406       .  A
C1402      N1407   1.437       .  S
C1403      H1408   1.083       .  S
N1404      H1424   1.045       .  S
N1404      H1425   1.046       .  S
C1406      C1409   1.399       .  A
C1406      C1413   1.405       .  A
N1407      H1422   1.046       .  S
N1407      H1423   1.045       .  S
C1409      C1410   1.404       .  A
C1409      H1414   1.084       .  S
C1410      C1411   1.416       .  A
C1410      N1415   1.432       .  S
C1411      C1412   1.408       .  A
C1412      C1413   1.402       .  A
C1412      H1416   1.083       .  S
C1413      N1417   1.438       .  S
N1415      H1418   1.046       .  S
N1415      H1419   1.046       .  S
N1417      H1420   1.046       .  S
N1417      H1421   1.045       .  S
C1426      C1427   1.408       .  A
C1426      C1431   1.399       .  A
C1427      C1428   1.403       .  A
C1427      N1432   1.438       .  S
C1428      C1429   1.400       .  A
C1428      H1433   1.084       .  S
C1429      C1430   1.408       .  A
C1429      C1434   1.466       .  S
C1430      C1431   1.400       .  A
C1430      N1435   1.437       .  S
C1431      H1436   1.084       .  S
N1432      H1452   1.046       .  S
N1432      H1453   1.046       .  S
C1434      C1437   1.397       .  A
C1434      C1441   1.409       .  A
N1435      H1450   1.046       .  S
N1435      H1451   1.044       .  S
C1437      C1438   1.393       .  A
C1437      H1442   1.084       .  S
C1438      C1439   1.405       .  A
C1438      N1443   1.432       .  S
C1439      C1440   1.403       .  A
C1440      C1441   1.406       .  A
C1440      H1444   1.082       .  S
C1441      N1445   1.437       .  S
N1443      H1446   1.046       .  S
N1443      H1447   1.045       .  S
N1445      H1448   1.046       .  S
N1445      H1449   1.045       .  S
C1454      C1455   1.410       .  A
C1454      C1459   1.404       .  A
C1455      C1456   1.402       .  A
C1455      N1460   1.432       .  S
C1456      C1457   1.400       .  A
C1456      H1461   1.084       .  S
C1457      C1458   1.408       .  A
C1457      C1462   1.473       .  S
C1458      C1459   1.402       .  A
C1458      N1463   1.438       .  S
C1459      H1464   1.084       .  S
N1460      H1480   1.045       .  S
N1460      H1481   1.046       .  S
C1462      C1465   1.402       .  A
C1462      C1469   1.407       .  A
N1463      H1478   1.045       .  S
N1463      H1479   1.046       .  S
C1465      C1466   1.401       .  A
C1465      H1470   1.084       .  S
C1466      C1467   1.408       .  A
C1466      N1471   1.432       .  S
C1467      C1468   1.406       .  A
C1468      C1469   1.402       .  A
C1468      H1472   1.084   1_545  S
C1469      N1473   1.438       .  S
N1471      H1474   1.045       .  S
N1471      H1475   1.046       .  S
N1473      H1476   1.046       .  S
N1473      H1477   1.046       .  S
C1482      C1483   1.410       .  A
C1482      C1487   1.401       .  A
C1483      C1484   1.405       .  A
C1483      N1488   1.437   1_565  S
C1484      C1485   1.403       .  A
C1484      H1489   1.084       .  S
C1485      C1486   1.410       .  A
C1485      C1490   1.477       .  S
C1486      C1487   1.400       .  A
C1486      N1491   1.438       .  S
C1487      H1492   1.084       .  S
N1488      H1508   1.046   1_545  S
N1488      H1509   1.046       .  S
C1490      C1493   1.403       .  A
C1490      C1497   1.410       .  A
N1491      H1506   1.046       .  S
N1491      H1507   1.046       .  S
C1493      C1494   1.406       .  A
C1493      H1498   1.084       .  S
C1494      C1495   1.412       .  A
C1494      N1499   1.438       .  S
C1495      C1496   1.402       .  A
C1496      C1497   1.400       .  A
C1496      H1500   1.084       .  S
C1497      N1501   1.439   1_565  S
N1499      H1502   1.045       .  S
N1499      H1503   1.046   1_455  S
N1501      H1504   1.046       .  S
N1501      H1505   1.046   1_545  S
